85
Properties=species:S:1:pos:R:3 pbc="F F F"
C        0.00000000       0.00000000       0.00000000
C        0.87196182       0.87196182      -0.87196182
S        0.56205731       2.51707170      -1.13911173
C        1.93993830       2.65695277      -2.15148968
C        2.61217261       1.45821431      -2.27143876
C        1.98966307       0.41512349      -1.52484163
C        3.79429326       1.30570729      -3.05919604
C        4.78821906       1.17533145      -3.72006399
C        6.05624814       1.00906892      -4.56173220
C        7.05170557       0.87830745      -5.22093762
C        8.23672184       0.72177139      -6.00364214
C        8.81465795       1.75818697      -6.70590772
S       10.22414239       1.25379374      -7.54380504
C       10.05200044      -0.33075007      -6.96664948
C        8.95784404      -0.49926923      -6.15495049
H        2.18335034       3.60865958      -2.60382330
H        2.34690348      -0.60634354      -1.47502682
H        8.48580130       2.78653633      -6.77280744
H        8.68389920      -1.43973561      -5.69257725
C       10.96691903      -1.39212322      -7.29832855
C       11.73316334      -2.28102324      -7.57610978
Br      12.97211559      -3.71829939      -8.02525852
C       -0.87196182      -0.87196182      -0.87196182
S       -0.98815876      -2.55204723      -0.67803475
C       -2.09623270      -2.66975571      -1.98239234
C       -2.36069072      -1.43753480      -2.54360017
C       -1.64650252      -0.38693489      -1.89619078
C       -3.25201742      -1.26103093      -3.64614823
C       -4.00115848      -1.11020237      -4.57225365
C       -4.95723031      -0.91743274      -5.75238621
C       -5.70805430      -0.76544341      -6.67745292
C       -6.60204608      -0.58312230      -7.77696698
C       -7.28229106      -1.62464002      -8.37182156
S       -8.27608547      -1.08412572      -9.66152998
C       -7.79353338       0.52233754      -9.41670401
C       -6.89912131       0.67169224      -8.38609621
H       -2.49405080      -3.63409366      -2.26768876
H       -1.70327258       0.65922766      -2.17154184
H       -7.25029097      -2.67590428      -8.11894983
H       -6.47810718       1.62174144      -8.08037511
C       -8.27769241       1.61904002     -10.21447196
C       -8.68317560       2.53752834     -10.88260262
Br      -9.33880762       4.02264629     -11.96291338
C       -0.87196182       0.87196182       0.87196182
S       -2.55524568       0.69534109       0.96765397
C       -2.67092986       1.98873909       2.08871180
C       -1.43564846       2.53338433       2.37279288
C       -0.38435979       1.88225213       1.66301627
C       -1.25696650       3.62411561       3.27811448
C       -1.10431374       4.54026194       4.03903882
C       -0.90923556       5.70768161       5.01013209
C       -0.75545209       6.62275816       5.77274038
C       -0.57101615       7.71036246       6.68075676
C       -1.61342290       8.30921662       7.35611312
S       -1.06986178       9.58194704       8.36993236
C        0.53906229       9.32468182       7.90228032
C        0.68701936       8.30231760       6.99822705
H       -3.63642841       2.28030476       2.47910004
H        0.66405700       2.14539790       1.73424586
H       -2.66696880       8.06833327       7.30984302
H        1.63826395       7.99074082       6.58426397
C        1.63899923      10.10495558       8.40716800
C        2.56019642      10.75843486       8.83001144
Br       4.04969437      11.81505558       9.51371351
C        0.87196182      -0.87196182       0.87196182
S        2.55925291      -0.72170209       0.93728574
C        2.67240118      -1.99840649       2.07757307
C        1.43328551      -2.51782366       2.39071651
C        0.38113376      -1.86102084       1.68747360
C        1.25187598      -3.59055585       3.31676476
C        1.09694137      -4.49153319       4.09513994
C        0.89897996      -5.63959029       5.08847901
C        0.74296026      -6.53945199       5.86853839
C        0.55589385      -7.60891887       6.79732265
C        1.59944767      -8.21387134       7.46543363
S        1.05208946      -9.46074462       8.50890710
C       -0.55995357      -9.18452532       8.06332810
C       -0.70618754      -8.17471255       7.14500027
H        3.63935424      -2.29952158       2.45695740
H       -0.67010698      -2.10557560       1.78011814
H        2.65586679      -7.99125137       7.39802692
H       -1.65895488      -7.85421178       6.74148394
C       -1.66394315      -9.93815191       8.59891560
C       -2.58853443     -10.56931418       9.04747012
Br      -4.08352032     -11.58985019       9.77274485
