106
Properties=species:S:1:pos:R:3 pbc="F F F"
C        1.78186585       1.78186585      -1.78186585
S        1.47196133       3.42697573      -2.04901575
C        2.84984232       3.56685679      -3.06139370
C        3.52207663       2.36811833      -3.18134278
C        2.89956709       1.32502752      -2.43474566
C        4.70419728       2.21561131      -3.96910007
C        5.69812309       2.08523547      -4.62996802
C        6.96615216       1.91897295      -5.47163622
C        7.96160960       1.78821147      -6.13084164
C        9.14662586       1.63167541      -6.91354617
C        9.72456197       2.66809099      -7.61581175
S       11.13404642       2.16369776      -8.45370907
C       10.96190447       0.57915396      -7.87655350
C        9.86774806       0.41063479      -7.06485451
H        3.09325437       4.51856360      -3.51372732
H        3.25680750       0.30356048      -2.38493085
H        9.39570533       3.69644035      -7.68271147
H        9.59380323      -0.52983159      -6.60248128
C       11.87682305      -0.48221920      -8.20823258
C       12.64306736      -1.37111922      -8.48601380
Br      13.88201961      -2.80839537      -8.93516255
C       -1.78186585      -1.78186585      -1.78186585
S       -1.82656658      -3.47136716      -1.65001908
C       -2.97991271      -3.58311695      -2.91506316
C       -3.31279250      -2.34188654      -3.41685871
C       -2.61398667      -1.28925861      -2.75609499
C       -4.25291617      -2.15897365      -4.47701885
C       -5.04314189      -2.00278347      -5.36740121
C       -6.05158718      -1.80323931      -6.50193484
C       -6.84349641      -1.64599578      -7.39117052
C       -7.78638213      -1.45749434      -8.44797097
C       -8.44956911      -2.50170835      -9.05718724
S       -9.51317868      -1.95227253     -10.28600204
C       -9.08259350      -0.33847948      -9.99653894
C       -8.15457481      -0.19317280      -8.99548975
H       -3.35182419      -4.55087260      -3.22284849
H       -2.72117417      -0.23646056      -2.98766410
H       -8.36780684      -3.55972435      -8.84732596
H       -7.75815566       0.76045522      -8.66875248
C       -9.63902940       0.76774561     -10.73155264
C      -10.10504446       1.69420913     -11.34712662
Br     -10.85855140       3.19222227     -12.34245767
C       -1.78186585       1.78186585       1.78186585
S       -3.44334784       1.51616056       1.98844442
C       -3.57283203       2.86597347       3.03928733
C       -2.35841278       3.49587488       3.21725009
C       -1.31181797       2.86390573       2.48361657
C       -2.19458552       4.64743466       4.04688848
C       -2.05438963       5.61484962       4.74408732
C       -1.87510352       6.84771935       5.63393846
C       -1.73362100       7.81423354       6.33280817
C       -1.56371866       8.96316529       7.16496349
C       -2.60027058       9.54146948       7.86672465
S       -2.07760228      10.90161732       8.77223365
C       -0.48523043      10.70834228       8.22403921
C       -0.32757425       9.64351230       7.37215081
H       -4.53042218       3.12526857       3.46985454
H       -0.27876897       3.18987868       2.47665118
H       -3.63835437       9.23889254       7.89761024
H        0.61567708       9.36204902       6.92008098
C        0.59266094      11.57866719       8.61683017
C        1.49539496      12.30756430       8.94579261
Br       2.95503953      13.48612929       9.47769703
C        1.78186585      -1.78186585       1.78186585
S        3.46123875      -1.58439604       1.90231802
C        3.57939819      -2.89099714       3.00769749
C        2.34785905      -3.45559545       3.26808325
C        1.29741257      -2.80894815       2.55297955
C        2.17184048      -4.56056251       4.15650567
C        2.02141853      -5.48870667       4.90320138
C        1.82916377      -6.67144176       5.85615581
C        1.67757488      -7.59855367       6.60453417
C        1.49572615      -8.70050598       7.49561531
C        2.53704804      -9.29454223       8.17687444
S        1.99721381     -10.58772641       9.16651302
C        0.39129634     -10.34544640       8.68086919
C        0.24162843      -9.31315074       7.78845819
H        4.54347763      -3.17501020       3.40705745
H        0.25175220      -3.08679772       2.60674891
H        3.58780502      -9.03921657       8.14783557
H       -0.70815616      -9.00862802       7.36598105
C       -0.70468564     -11.14679553       9.16072654
C       -1.62257055     -11.81792543       9.56260707
Br      -3.10671281     -12.90308571      10.21241389
C       -0.00445707       0.01189536      -1.78238275
H       -0.66409135       0.67374010      -2.43557963
H        0.65740317      -0.63156657      -2.45157240
C       -0.90989263      -0.90692880      -0.91072765
C        0.90977584       0.90977584      -0.90977584
C       -0.00465871       1.77757030       0.00794375
H       -0.66225468       2.44313916      -0.64384735
H        0.64322798       2.43503045       0.67728295
C       -1.78241447       0.00034974      -0.00472694
H       -2.45427497      -0.65498947       0.64260836
H       -2.43311707       0.67328779      -0.65473579
C       -0.91132561       0.90220522       0.91563759
C       -0.01476271      -0.02253852       1.78660255
H       -0.67934791      -0.69751639       2.42135241
H        0.63392994       0.61504881       2.47327442
C        0.01484550      -1.77751727      -0.01636693
H        0.67870853      -2.42144646      -0.68295456
H       -0.62264859      -2.45592969       0.64226336
C        1.78714474       0.01002794       0.00389507
H        2.44202412       0.67113390       0.66197326
H        2.45385902      -0.65136977      -0.64189061
C        0.91606151      -0.90478549       0.90901405
