78
Properties=species:S:1:pos:R:3 pbc="F F F"
C        1.78428071       1.78428071      -1.78428071
N        2.95579872       1.13959371      -2.41371881
C        3.54089169       2.28596726      -3.12676297
C        2.53392009       3.36637135      -2.76879198
Br       2.78495073       5.10479945      -3.45128020
C        2.32422385       3.14612045      -1.24993828
C        1.16873932       2.64722432      -2.92662917
H        3.62291640       0.76441445      -1.73849578
H        3.58471920       2.08905845      -4.20284432
H        4.54696269       2.51280293      -2.75729947
H        1.58910377       3.79896112      -0.76206541
H        3.22294154       3.11208772      -0.62398709
H        0.98090857       2.14477991      -3.88196880
H        0.27895165       3.23353341      -2.66378453
C       -1.78428071      -1.78428071      -1.78428071
N       -3.15246580      -1.29761058      -2.05903487
C       -3.66862348      -2.40187041      -2.88312803
C       -2.44097742      -3.29625231      -2.93185369
Br      -2.52837254      -4.90739090      -3.90526695
C       -1.96321766      -3.29868984      -1.45837509
C       -1.28003383      -2.29502006      -3.16753892
H       -3.71987774      -1.18822906      -1.21771982
H       -3.96610769      -2.03842084      -3.87209343
H       -4.52347663      -2.89058556      -2.40300290
H       -1.04337602      -3.85913304      -1.24762125
H       -2.70604457      -3.55743668      -0.69553509
H       -1.38126788      -1.60988376      -4.01650564
H       -0.26882487      -2.72125515      -3.18618957
C       -1.78428071       1.78428071       1.78428071
N       -1.18098182       3.03302187       2.29510755
C       -2.29669683       3.56091124       3.09601385
C       -3.34126582       2.48707746       2.84074013
Br      -5.04016222       2.66434867       3.63651950
C       -2.53157430       1.17758559       3.01112268
C       -3.20800012       2.21505128       1.31954141
H       -0.36393130       2.87568320       2.88621213
H       -2.60379382       4.54512756       2.72770058
H       -2.02522814       3.63723132       4.15460563
H       -3.07737597       0.24274901       2.83000533
H       -1.95608734       1.06604209       3.93688692
H       -3.27128139       3.08276810       0.65360778
H       -3.84482245       1.41951268       0.91193446
C        1.78428071      -1.78428071       1.78428071
N        1.24453809      -3.10910840       2.15546476
C        2.33728594      -3.61586141       3.00047458
C        3.31099306      -2.45301983       2.90507053
Br       4.95679037      -2.56872927       3.81551075
C        2.39191529      -1.22243112       3.10593617
C        3.26690857      -2.07401502       1.40166923
H        0.37729661      -3.05738909       2.69114093
H        2.74559527      -4.54383156       2.58719514
H        1.99703276      -3.79349155       4.02654078
H        2.87511087      -0.23948228       3.03553716
H        1.74433346      -1.22483574       3.98984714
H        3.44516182      -2.88059238       0.68190308
H        3.86773913      -1.20544126       1.10308921
C       -0.00445707       0.01189536      -1.78238275
H       -0.66409135       0.67374010      -2.43557963
H        0.65740317      -0.63156657      -2.45157240
C       -0.90989263      -0.90692880      -0.91072765
C        0.90977584       0.90977584      -0.90977584
C       -0.00465871       1.77757030       0.00794375
H       -0.66225468       2.44313916      -0.64384735
H        0.64322798       2.43503045       0.67728295
C       -1.78241447       0.00034974      -0.00472694
H       -2.45427497      -0.65498947       0.64260836
H       -2.43311707       0.67328779      -0.65473579
C       -0.91132561       0.90220522       0.91563759
C       -0.01476271      -0.02253852       1.78660255
H       -0.67934791      -0.69751639       2.42135241
H        0.63392994       0.61504881       2.47327442
C        0.01484550      -1.77751727      -0.01636693
H        0.67870853      -2.42144646      -0.68295456
H       -0.62264859      -2.45592969       0.64226336
C        1.78714474       0.01002794       0.00389507
H        2.44202412       0.67113390       0.66197326
H        2.45385902      -0.65136977      -0.64189061
C        0.91606151      -0.90478549       0.90901405
