138
Properties=species:S:1:pos:R:3 pbc="F F F"
C        1.78438993       1.78438993      -1.78438993
N        2.88923729       1.12260690      -2.50455711
C        3.49931440       2.26560753      -3.19009072
C        2.57169897       3.37343998      -2.72927582
C        2.41875955       3.09077154      -1.21085151
C        1.15897438       2.73677949      -2.84984125
C        2.63622822       4.84939108      -3.09619722
C        1.70294113       5.95580665      -2.64258053
N        2.29645644       7.09428521      -3.35011454
C        3.43405786       6.44034152      -4.02600599
C        2.82274672       5.13225411      -4.61334245
C        4.04020597       5.49286145      -2.94384610
H        3.56471040       0.67794490      -1.88513273
H        3.47947069       2.12383980      -4.27484064
H        4.53219458       2.42390146      -2.86344587
H        1.73823148       3.74478989      -0.65138678
H        3.34370515       2.98385822      -0.63339161
H        0.89795738       2.29794494      -3.81904505
H        0.31127335       3.34271267      -2.50692161
H        0.66982022       5.79395317      -2.96464314
H        1.72634297       6.10206900      -1.55779236
H        2.58107938       7.81471750      -2.68836502
H        3.52063972       4.48330119      -5.15645768
H        1.91022860       5.23252055      -5.21118922
H        4.27716588       5.93539670      -1.97017427
H        4.89884067       4.89107891      -3.26589333
C        4.28725487       7.28731615      -4.81865272
C        5.00180737       7.99665740      -5.48249435
Br       6.15717832       9.14360221      -6.55587013
C       -1.78438993      -1.78438993      -1.78438993
N       -1.41087276      -3.20735266      -1.89817589
C       -2.44120983      -3.69310006      -2.82070275
C       -3.23185059      -2.41544820      -3.02711597
C       -2.12342759      -1.35124854      -3.24570647
C       -3.33262297      -1.81651659      -1.59645556
C       -4.47436616      -2.22237001      -3.88508035
C       -5.27045998      -0.94662781      -4.08424051
N       -6.31707297      -1.43876500      -4.98501822
C       -5.91011058      -2.84892228      -5.14137251
C       -5.57095818      -3.30687796      -3.69050714
C       -4.36112845      -2.79128367      -5.32450140
H       -0.48335410      -3.34997001      -2.29446393
H       -3.03573221      -4.48578823      -2.35663070
H       -2.00178598      -4.06636967      -3.75138626
H       -2.45231368      -0.31192125      -3.37017321
H       -1.37565663      -1.56897663      -4.01632171
H       -3.72647146      -2.47440572      -0.81407018
H       -3.82059209      -0.83863649      -1.50167906
H       -5.70457387      -0.57118582      -3.15265685
H       -4.67787254      -0.15467305      -4.55365874
H       -6.30691779      -0.91714922      -5.86009489
H       -5.22948802      -4.34409311      -3.58681746
H       -6.32286616      -3.11347791      -2.91759430
H       -3.97502982      -2.11380588      -6.09390115
H       -3.85920821      -3.76012127      -5.43648343
C       -6.72060985      -3.66186696      -6.01074692
C       -7.39940299      -4.34270814      -6.73884799
Br      -8.49695409      -5.44357073      -7.91612584
C       -1.78438993       1.78438993       1.78438993
N       -2.29152533       3.03571148       1.18916450
C       -3.04188085       3.59658723       2.31654457
C       -2.82618892       2.50312434       3.34510151
C       -1.31052337       2.19568119       3.21417804
C       -3.02156240       1.19465980       2.52937292
C       -3.36337676       2.45001955       4.76842021
C       -3.15523175       1.35200823       5.79408833
N       -3.92854491       1.89976559       6.91254569
C       -4.38938558       3.17705780       6.33396199
C       -4.87411717       2.79040024       4.90382587
C       -3.13845719       3.74518157       5.59327475
H       -1.55149093       3.67417223       0.90212488
H       -4.09636221       3.72664245       2.05514648
H       -2.62586102       4.55750162       2.63617926
H       -0.91431993       1.38355251       3.83653571
H       -0.62621851       3.04827533       3.28646114
H       -3.95186133       1.10520542       1.95788062
H       -2.85134076       0.24970079       3.05986609
H       -3.56631893       0.39068106       5.47141654
H       -2.10087737       1.22496385       6.06036311
H       -3.33367750       2.01957168       7.73091271
H       -5.25291506       3.61707807       4.29040546
H       -5.57634210       1.95331200       4.82428426
H       -2.20685105       3.80995133       6.16593447
H       -3.28740585       4.69788849       5.07051857
C       -5.18209659       4.02345517       7.18767197
C       -5.84599206       4.73231298       7.90265409
Br      -6.91945488       5.87847609       9.05871969
C        1.78438993      -1.78438993       1.78438993
N        2.28047351      -1.19366872       3.04225907
C        3.08540963      -2.29880420       3.57079882
C        2.85267041      -3.33430885       2.48743551
C        3.02465959      -2.51557324       1.18014977
C        1.33025633      -3.21867318       2.19666562
C        3.40492807      -4.75148576       2.42540268
C        3.16468201      -5.79023683       1.34640947
N        3.94727060      -6.90491394       1.88867165
C        4.48731545      -6.29405018       3.11903974
C        3.26263994      -5.56059149       3.74511186
C        4.93126062      -4.86260874       2.68304416
H        2.86046814      -0.36864467       2.89867523
H        2.71088763      -2.61980358       4.54745993
H        4.14006838      -2.01905648       3.66041705
H        2.85086433      -3.04728734       0.23625647
H        3.94721735      -1.93297144       1.08076619
H        0.65721129      -3.30063173       3.05710434
H        0.93142702      -3.84233654       1.38714408
H        2.10963920      -6.06509366       1.25368368
H        3.54413531      -5.47215611       0.36991290
H        4.66989139      -7.18633205       1.22793845
H        3.45814071      -5.02187473       4.68038315
H        2.34258866      -6.14221666       3.86913304
H        5.58606963      -4.78871702       1.80795019
H        5.34706965      -4.23109228       3.47765098
C        5.35473077      -7.11731405       3.92117892
C        6.08119110      -7.80679754       4.59297048
Br       7.25581600      -8.92163403       5.67920063
C       -0.00445707       0.01189536      -1.78238275
H       -0.66409135       0.67374010      -2.43557963
H        0.65740317      -0.63156657      -2.45157240
C       -0.90989263      -0.90692880      -0.91072765
C        0.90977584       0.90977584      -0.90977584
C       -0.00465871       1.77757030       0.00794375
H       -0.66225468       2.44313916      -0.64384735
H        0.64322798       2.43503045       0.67728295
C       -1.78241447       0.00034974      -0.00472694
H       -2.45427497      -0.65498947       0.64260836
H       -2.43311707       0.67328779      -0.65473579
C       -0.91132561       0.90220522       0.91563759
C       -0.01476271      -0.02253852       1.78660255
H       -0.67934791      -0.69751639       2.42135241
H        0.63392994       0.61504881       2.47327442
C        0.01484550      -1.77751727      -0.01636693
H        0.67870853      -2.42144646      -0.68295456
H       -0.62264859      -2.45592969       0.64226336
C        1.78714474       0.01002794       0.00389507
H        2.44202412       0.67113390       0.66197326
H        2.45385902      -0.65136977      -0.64189061
C        0.91606151      -0.90478549       0.90901405
