90
Properties=species:S:1:pos:R:3 pbc="F F F"
C        1.79751992       1.79751992      -1.79751992
C        1.07695289       3.02729102      -2.34938094
C        2.24736010       3.96858112      -2.66391238
C        3.45305632       3.12809658      -2.24318168
Br       5.00301990       4.15809390      -1.85977509
C        3.69555041       1.98125691      -3.22288299
C        2.52387105       1.03853104      -2.90641943
N        2.93411581       2.39240791      -1.08494425
H        0.48616591       2.80423036      -3.24432173
H        0.41228231       3.49495623      -1.61295987
H        2.14951340       4.89099041      -2.07837561
H        2.27259009       4.24246870      -3.72413858
H        4.64709934       1.46519194      -3.04496461
H        3.67944814       2.30828108      -4.26837352
H        2.90796006       0.06624236      -2.57387377
H        1.89297889       0.86933095      -3.78564747
H        2.60353691       3.04158043      -0.37421647
C       -1.79751992      -1.79751992      -1.79751992
C       -3.12660682      -1.14692672      -2.18009131
C       -3.50915328      -1.92366618      -3.44703414
C       -2.33874047      -2.89690853      -3.58868558
Br      -2.10766332      -3.55837098      -5.35485459
C       -2.39407827      -3.98640733      -2.51920471
C       -2.00965926      -3.20808798      -1.25107427
N       -1.20642021      -2.09851773      -3.10653003
H       -3.88710886      -1.24911749      -1.39849165
H       -3.02423094      -0.08062866      -2.41533879
H       -3.59031567      -1.23311156      -4.29545218
H       -4.47162812      -2.43404638      -3.33352288
H       -1.67009078      -4.79146262      -2.69570249
H       -3.38736609      -4.43972698      -2.42900967
H       -1.09863096      -3.63533853      -0.81410671
H       -2.80021981      -3.25340363      -0.49433387
H       -1.11603538      -1.24687719      -3.65642123
C       -1.79751992       1.79751992       1.79751992
C       -1.11697966       3.09044505       2.24620014
C       -2.31878386       3.98626712       2.57480262
C       -3.49738139       3.06382549       2.26312769
Br      -5.11813928       3.99112002       1.91162959
C       -3.62736746       1.96052923       3.31179363
C       -2.42431602       1.06323628       2.98126922
N       -2.99943622       2.29430035       1.11773140
H       -0.47007417       2.94639584       3.11824799
H       -0.51696729       3.55112003       1.45211108
H       -2.30081423       4.87959161       1.93847358
H       -2.30451574       4.31521685       3.61946479
H       -4.55758506       1.38767816       3.21199266
H       -3.57549633       2.34378736       4.33681905
H       -2.77196819       0.05609107       2.72001693
H       -1.74112015       0.97410214       3.83273503
H       -2.74105697       2.92029241       0.35798443
C        1.79751992      -1.79751992       1.79751992
C        3.04078533      -1.08440809       2.32843142
C        3.39015617      -1.92779765       3.56189978
C        2.29193353      -2.99110129       3.54129975
Br       1.98611662      -3.80306752       5.23170475
C        2.50905747      -3.98714440       2.40348844
C        2.15778740      -3.14222665       1.16880746
N        1.13866183      -2.24145866       3.03134748
H        3.86139623      -1.07021837       1.60310340
H        2.83895017      -0.04985861       2.63138962
H        3.35579809      -1.30136564       4.46171568
H        4.39513489      -2.35693359       3.48712891
H        1.83911872      -4.85368268       2.46445448
H        3.53854671      -4.35913304       2.35842299
H        1.31674959      -3.59882783       0.63249877
H        3.00206161      -3.07124868       0.47464703
H        0.94274261      -1.44399189       3.63259931
C       -0.00445707       0.01189536      -1.78238275
H       -0.66409135       0.67374010      -2.43557963
H        0.65740317      -0.63156657      -2.45157240
C       -0.90989263      -0.90692880      -0.91072765
C        0.90977584       0.90977584      -0.90977584
C       -0.00465871       1.77757030       0.00794375
H       -0.66225468       2.44313916      -0.64384735
H        0.64322798       2.43503045       0.67728295
C       -1.78241447       0.00034974      -0.00472694
H       -2.45427497      -0.65498947       0.64260836
H       -2.43311707       0.67328779      -0.65473579
C       -0.91132561       0.90220522       0.91563759
C       -0.01476271      -0.02253852       1.78660255
H       -0.67934791      -0.69751639       2.42135241
H        0.63392994       0.61504881       2.47327442
C        0.01484550      -1.77751727      -0.01636693
H        0.67870853      -2.42144646      -0.68295456
H       -0.62264859      -2.45592969       0.64226336
C        1.78714474       0.01002794       0.00389507
H        2.44202412       0.67113390       0.66197326
H        2.45385902      -0.65136977      -0.64189061
C        0.91606151      -0.90478549       0.90901405
