194
Properties=species:S:1:pos:R:3 pbc="F F F"
C        1.81450953       1.81450953      -1.81450953
H        1.21097550       2.35199302      -2.55752912
C        3.04547658       1.11535608      -2.45589924
C        3.82281559       2.37005892      -2.11350650
C        2.80837742       2.75408838      -1.06954624
C        4.14956165       3.33551601      -3.23880221
C        5.57936691       2.72124439      -3.21129374
C        5.28730836       2.24538464      -1.75738851
N        6.57916985       3.77889286      -3.18559494
C        5.87868081       1.70636024      -4.18507989
C        6.08578810       0.81824504      -4.96646545
C        6.35908620      -0.34489460      -5.92319198
C        6.65121630      -1.26309169      -6.63833440
C        7.11602378      -2.34432316      -7.45873465
N        8.42474542      -2.80611392      -6.99196664
C        7.16910416      -2.12082036      -8.99370015
C        6.64611595      -3.53624394      -9.15184940
C        6.19883416      -3.57285168      -7.70544792
C        7.60456296      -4.59134665      -9.66088921
C        6.81488756      -4.56711537     -10.99995700
H        6.54352826      -5.56654445     -11.35656253
C        5.65959337      -3.84252719     -10.24993785
Br       7.64400450      -3.53623560     -12.42555304
H        2.93913023       0.87388434      -3.51758753
H        3.39183642       0.21851937      -1.92854529
H        3.07109632       2.42977841      -0.05565617
H        2.51488912       3.80687856      -1.03521696
H        4.08369566       4.39143779      -2.94565157
H        3.58416186       3.20914566      -4.16780862
H        5.63927797       1.24258935      -1.49409720
H        5.60463920       2.93340813      -0.96267660
H        6.35697261       4.56881920      -2.58382547
H        6.78346656       4.16707056      -4.10530179
H        8.77823031      -3.64916296      -7.43578136
H        8.45306268      -2.97988136      -5.98797226
H        8.15016936      -1.90013014      -9.42643300
H        6.46755314      -1.35597487      -9.35317469
H        5.12901818      -3.36199515      -7.57578904
H        6.42687533      -4.48591260      -7.14529809
H        7.53453735      -5.55404921      -9.14059661
H        8.66113350      -4.31217258      -9.71676254
H        5.20745332      -2.98595963     -10.75779103
H        4.85546023      -4.52703507      -9.95318933
C       -1.81450953      -1.81450953      -1.81450953
H       -2.77519469      -1.32476030      -2.02054264
C       -1.99670442      -3.28244172      -1.33758575
C       -1.83609521      -3.67925057      -2.79103523
C       -1.14946073      -2.37694662      -3.10560469
C       -3.08082033      -4.08108248      -3.56197705
C       -2.61190105      -5.54996814      -3.35003585
C       -1.17386585      -4.99921273      -3.11700294
N       -2.65619196      -6.27731306      -4.61015263
C       -3.21503419      -6.28431286      -2.27077390
C       -3.68686905      -6.85706532      -1.32656422
C       -4.24136516      -7.59217833      -0.10384010
C       -4.62583052      -8.23455086       0.83392238
C       -5.03379118      -9.09975238       1.90310828
N       -4.21235010     -10.31177606       1.91352801
C       -6.53223313      -9.49562133       1.98587051
C       -6.42665577      -9.32480704       3.48974140
C       -5.13857257      -8.54104528       3.34818745
C       -6.44772323     -10.57260028       4.34621799
C       -7.87908736     -10.16125591       4.79261409
H       -8.01664275     -10.19559378       5.87869018
C       -7.58541776      -8.73218620       4.25059993
Br      -9.32385608     -11.10165377       3.89218791
H       -2.96106236      -3.50030271      -0.86923703
H       -1.20020675      -3.65577938      -0.68291495
H       -0.05505561      -2.43261264      -3.06886264
H       -1.44362152      -1.87948821      -4.03387490
H       -3.08527471      -3.73251201      -4.60299829
H       -4.04095508      -3.80780764      -3.11235342
H       -0.59911988      -5.46627051      -2.31057413
H       -0.53338859      -4.95935408      -4.00798126
H       -2.33234014      -5.75565807      -5.42161909
H       -3.58411232      -6.62672855      -4.84499803
H       -4.34692824     -10.92811226       2.71019179
H       -3.21259285     -10.11801223       1.86945151
H       -6.80110148     -10.48964002       1.61426928
H       -7.20753153      -8.76999409       1.51277266
H       -5.28400900      -7.45364002       3.39483695
H       -4.33063950      -8.79735182       4.04173051
H       -5.72462608     -10.56699656       5.17053789
H       -6.35978500     -11.53046658       3.82452812
H       -8.37442847      -8.26188238       3.65702613
H       -7.29175046      -8.03313705       5.04327302
C       -1.81450953       1.81450953       1.81450953
H       -2.78388287       1.33455214       2.00206262
C       -1.97196944       3.29057936       1.35418310
C       -1.82500276       3.66685867       2.81451958
C       -1.15900555       2.35197637       3.12103011
C       -3.07432500       4.07482706       3.57472780
C       -2.58416298       5.54014381       3.38759825
C       -1.15034687       4.97398521       3.16574945
N       -2.63539793       6.25198165       4.65627808
C       -3.16405694       6.29577157       2.31029244
C       -3.61645233       6.88643914       1.36760711
C       -4.14586746       7.64402794       0.14748819
C       -4.51010863       8.30310209      -0.78675172
C       -4.89333399       9.18693460      -1.84983331
N       -4.05654472      10.38835792      -1.83430449
C       -6.38545814       9.60300560      -1.94647979
C       -6.26277301       9.44990865      -3.45096025
C       -4.98663941       8.64796132      -3.30317032
C       -6.25705133      10.70861505      -4.29156086
C       -7.68766658      10.32134828      -4.76128568
H       -7.81083529      10.37119789      -5.84848683
C       -7.41909277       8.88188065      -4.23396939
Br      -9.13184071      11.26872113      -3.86723991
H       -2.92740511       3.52670412       0.87649287
H       -1.16247703       3.66193103       0.71449303
H       -0.06360206       2.39406228       3.09886655
H       -1.47132350       1.84661676       4.03904438
H       -3.09654430       3.71318779       4.61105293
H       -4.03199764       3.81960449       3.10951401
H       -0.55943697       5.44380758       2.37271997
H       -0.52190566       4.91463601       4.06418227
H       -2.32861199       5.71598213       5.46502318
H       -3.56175490       6.61026759       4.88381641
H       -4.17307863      11.01640828      -2.62463819
H       -3.05996882      10.18124499      -1.78006024
H       -6.64646143      10.59560558      -1.56559480
H       -7.07590328       8.88016642      -1.49131673
H       -5.14522383       7.56318873      -3.36560048
H       -4.16669687       8.90264646      -3.98308252
H       -5.52357025      10.70417657      -5.10666208
H       -6.16368879      11.65859168      -3.75655702
H       -8.22154373       8.41425623      -3.65651523
H       -7.12415884       8.18921631      -5.03176066
C        1.81450953      -1.81450953       1.81450953
H        1.34526514      -1.98256871       2.79266378
C        3.29859838      -1.37215951       1.94597400
C        3.65329833      -2.83929379       1.81378889
C        2.32553419      -3.13683709       1.16964076
C        4.06795703      -3.58819195       3.06773088
C        5.52886899      -3.42750032       2.55553572
C        4.94635304      -3.21718701       1.12654147
N        6.22431376      -4.70490948       2.61443441
C        6.30661648      -2.35287551       3.11062895
C        6.91590686      -1.41231617       3.54227555
C        7.69684011      -0.19560544       4.04493804
C        8.37321748       0.73440488       4.38764641
C        9.27629189       1.79044229       4.74458567
N       10.46595322       1.74745417       3.89209910
C        9.71379468       1.90137936       6.22956863
C        9.57917349       3.40602155       6.08856947
C        8.75810689       3.25206527       4.82538878
C       10.84881058       4.22934049       6.05463543
C       10.48727467       4.72334976       7.48380427
H       10.55331640       5.81132500       7.59155495
C        9.03738056       4.21204087       7.24166434
Br      11.44209099       3.83593500       8.92716594
H        3.55400983      -0.88498364       2.89160863
H        3.66746645      -0.74843674       1.12299789
H        2.35306822      -3.12988983       0.07357285
H        1.81222641      -4.04366376       1.50109446
H        3.69283187      -4.61913289       3.10882026
H        3.83197367      -3.10680360       4.02233887
H        5.41868499      -2.43856493       0.51871461
H        4.86649125      -4.12305332       0.51117936
H        5.67344461      -5.51034714       2.32582554
H        6.59204361      -4.92487817       3.53891713
H       11.10603291       2.53069360       3.98950941
H       10.24465114       1.68270462       2.89920706
H       10.70465970       1.51060441       6.48241693
H        8.99435645       1.46532084       6.93571735
H        7.67651378       3.33130038       4.99759868
H        9.01072562       3.91744378       3.99297898
H       10.84533107       5.03454987       5.31030355
H       11.79019896       3.68031531       5.95583981
H        8.57299369       3.65175293       8.05804397
H        8.35150989       5.01512951       6.94523411
C       -0.00445707       0.01189536      -1.78238275
H       -0.66409135       0.67374010      -2.43557963
H        0.65740317      -0.63156657      -2.45157240
C       -0.90989263      -0.90692880      -0.91072765
C        0.90977584       0.90977584      -0.90977584
C       -0.00465871       1.77757030       0.00794375
H       -0.66225468       2.44313916      -0.64384735
H        0.64322798       2.43503045       0.67728295
C       -1.78241447       0.00034974      -0.00472694
H       -2.45427497      -0.65498947       0.64260836
H       -2.43311707       0.67328779      -0.65473579
C       -0.91132561       0.90220522       0.91563759
C       -0.01476271      -0.02253852       1.78660255
H       -0.67934791      -0.69751639       2.42135241
H        0.63392994       0.61504881       2.47327442
C        0.01484550      -1.77751727      -0.01636693
H        0.67870853      -2.42144646      -0.68295456
H       -0.62264859      -2.45592969       0.64226336
C        1.78714474       0.01002794       0.00389507
H        2.44202412       0.67113390       0.66197326
H        2.45385902      -0.65136977      -0.64189061
C        0.91606151      -0.90478549       0.90901405
