106
Properties=species:S:1:pos:R:3 pbc="F F F"
C       -1.16263559       4.32874710      -7.27640448
C       -0.49683731       3.72424281      -6.05325770
O        0.10578234       2.49398424      -6.44525779
C        0.81213538       1.79199215      -5.50436770
C        0.93528739       2.16810901      -4.16058216
C        1.69096464       1.39887912      -3.25635738
C        1.82115602       1.82115602      -1.82115602
C        2.31859572       0.23273855      -3.71422270
C        2.19486747      -0.15826782      -5.04633816
C        1.44713776       0.61737798      -5.93559414
Br       1.32820969       0.02590677      -7.73882786
H       -1.64566520       5.27791142      -7.02821432
H       -1.91433997       3.64480992      -7.68406218
H       -0.42719377       4.50283934      -8.06886678
H       -1.25610518       3.54578231      -5.28356114
H        0.26314734       4.42054483      -5.68066158
H        0.44765728       3.06381730      -3.78743189
H        1.49217086       2.85275441      -1.66224006
H        2.85229840       1.72492674      -1.46751672
H        2.90226901      -0.38363165      -3.03269561
H        2.68299232      -1.06947485      -5.38288752
C       -8.41753702      -1.26806312      -0.75691586
C       -6.91894436      -1.40234486      -0.95937398
O       -6.45723773      -2.46185231      -0.12593435
C       -5.12987513      -2.79643588      -0.18218423
C       -4.17533474      -2.12854043      -0.96010338
C       -2.83021248      -2.54186191      -0.97412675
C       -1.82115602      -1.82115602      -1.82115602
C       -2.44598910      -3.63432613      -0.18524174
C       -3.38390701      -4.30061512       0.60158432
C       -4.71747285      -3.88455703       0.60191999
Br      -5.94201829      -4.84521224       1.69428621
H       -8.82367744      -0.46221734      -1.37456577
H       -8.64782843      -1.05984820       0.29314450
H       -8.92648884      -2.20257184      -1.01545167
H       -6.43377372      -0.46074433      -0.67872022
H       -6.72084323      -1.63062585      -2.01288467
H       -4.45457773      -1.27443480      -1.56989394
H       -2.29347471      -1.15969096      -2.55399965
H       -1.17015374      -2.52249764      -2.35209047
H       -1.41003964      -3.96856846      -0.17272487
H       -3.06701060      -5.14204500       1.21265061
C       -4.30145315       7.29409683      -1.15303398
C       -3.70305861       6.06685668      -0.48925209
O       -2.47349896       6.45292430       0.11860112
C       -1.77683797       5.50749134       0.82416592
C       -2.15768665       4.16454021       0.94175170
C       -1.39382995       3.25539527       1.69697592
C       -1.82115602       1.82115602       1.82115602
C       -0.22825603       3.70745432       2.32984662
C        0.16744620       5.03868914       2.21169486
C       -0.60290039       5.93286056       1.46434894
Br      -0.00523044       7.73454415       1.35316973
H       -5.24984457       7.05054152      -1.63992554
H       -3.61377348       7.70196184      -1.90120319
H       -4.47536722       8.08474094      -0.41559582
H       -3.52462570       5.29904082      -1.25042824
H       -4.40301663       5.69406619       0.26727092
H       -3.05301101       3.79586785       0.45002761
H       -2.85219130       1.66664371       1.48833031
H       -1.72940783       1.46388088       2.85145315
H        0.38401826       3.02205484       2.91329639
H        1.07814941       5.37070920       2.70384520
C        6.18137121       1.45744988       5.71859468
C        5.20968616       0.73322090       4.80419794
O        5.89098871       0.43479438       3.58883005
C        5.21581906      -0.26729031       2.62538586
C        3.87584178      -0.66353013       2.72460664
C        3.25571414      -1.39548025       1.69500675
C        1.82115602      -1.82115602       1.82115602
C        3.99564633      -1.71979157       0.55011907
C        5.32648899      -1.32205970       0.43438912
C        5.93255440      -0.60131589       1.46623959
Br       7.75259188      -0.09863634       1.24171611
H        5.70506862       1.71364016       6.66903208
H        6.54466573       2.37580376       5.24567017
H        7.05888435       0.83394580       5.91957380
H        4.35057077       1.38417386       4.60684137
H        4.88003926      -0.19002645       5.29428803
H        3.28564510      -0.41235708       3.60090429
H        1.44708367      -1.71585996       2.84422169
H        1.68215892      -2.85910419       1.50347875
H        3.53649185      -2.27844659      -0.26360547
H        5.88363995      -1.57651981      -0.46375478
C       -0.00445707       0.01189536      -1.78238275
H       -0.66409135       0.67374010      -2.43557963
H        0.65740317      -0.63156657      -2.45157240
C       -0.90989263      -0.90692880      -0.91072765
C        0.90977584       0.90977584      -0.90977584
C       -0.00465871       1.77757030       0.00794375
H       -0.66225468       2.44313916      -0.64384735
H        0.64322798       2.43503045       0.67728295
C       -1.78241447       0.00034974      -0.00472694
H       -2.45427497      -0.65498947       0.64260836
H       -2.43311707       0.67328779      -0.65473579
C       -0.91132561       0.90220522       0.91563759
C       -0.01476271      -0.02253852       1.78660255
H       -0.67934791      -0.69751639       2.42135241
H        0.63392994       0.61504881       2.47327442
C        0.01484550      -1.77751727      -0.01636693
H        0.67870853      -2.42144646      -0.68295456
H       -0.62264859      -2.45592969       0.64226336
C        1.78714474       0.01002794       0.00389507
H        2.44202412       0.67113390       0.66197326
H        2.45385902      -0.65136977      -0.64189061
C        0.91606151      -0.90478549       0.90901405
