93
Properties=species:S:1:pos:R:3 pbc="F F F"
C        0.00000000       0.00000000       0.00000000
C       -2.07253961       3.41884308      -6.36650046
C       -1.40674134       2.81433879      -5.14335367
O       -0.80412168       1.58408022      -5.53535376
C       -0.09776864       0.88208812      -4.59446368
C        0.02538336       1.25820498      -3.25067813
C        0.78106062       0.48897510      -2.34645335
C        0.91125200       0.91125200      -0.91125200
C        1.40869170      -0.67716548      -2.80431867
C        1.28496344      -1.06817184      -4.13643413
C        0.53723374      -0.29252604      -5.02569012
H       -2.55556922       4.36800740      -6.11831030
H       -2.82424400       2.73490590      -6.77415816
H       -1.33709780       3.59293531      -7.15896276
H       -2.16600920       2.63587829      -4.37365711
H       -0.64675669       3.51064080      -4.77075755
H       -0.46224674       2.15391328      -2.87752786
H        0.58226684       1.94285038      -0.75233603
H        1.94239438       0.81502271      -0.55761270
H        1.99236498      -1.29353568      -2.12279159
H        1.77308829      -1.97937888      -4.47298350
C        0.44716903      -0.74044957      -6.39128627
C        0.37173983      -1.11558552      -7.53497305
Br       0.24977720      -1.72214863      -9.38421785
C       -6.39362968      -3.37690434       2.05773009
C       -5.12991600      -2.83511193       1.41407680
O       -4.09947952      -3.80378112       1.58794834
C       -2.87120614      -3.54605144       1.03847442
C       -2.53507347      -2.36444972       0.36525671
C       -1.25260659      -2.17993979      -0.18394269
C       -0.91125200      -0.91125200      -0.91125200
C       -0.29866540      -3.19629410      -0.04088540
C       -0.61714449      -4.37225613       0.63617489
C       -1.89578678      -4.54595427       1.17134324
H       -7.21881200      -2.66675492       1.95481844
H       -6.22934101      -3.57713225       3.12165319
H       -6.68453919      -4.32634107       1.59607998
H       -4.85281709      -1.89515059       1.90444147
H       -5.31816629      -2.66440816       0.34793277
H       -3.25961092      -1.56325563       0.25367215
H       -1.80079835      -0.32204495      -1.15460994
H       -0.36345235      -1.11517289      -1.83640455
H        0.70280222      -3.07451617      -0.44990695
H        0.13728437      -5.14757935       0.74360207
C       -2.17190398      -5.78224330       1.85614155
C       -2.40315213      -6.81763536       2.42966013
Br      -2.77706084      -8.49177676       3.35699118
C       -4.89906759       5.18554632      -2.37180999
C       -3.96461247       4.23347417      -1.64713552
O       -2.75403953       4.93261969      -1.37134692
C       -1.77435326       4.27733593      -0.67290603
C       -1.85284367       2.94111583      -0.25969302
C       -0.80731650       2.34200574       0.46716683
C       -0.91125200       0.91125200       0.91125200
C        0.33239078       3.09924902       0.76898665
C        0.42747967       4.42651312       0.35419228
C       -0.61999703       5.01167044      -0.36126966
H       -5.84670084       4.69500928      -2.61096165
H       -4.44141393       5.54339335      -3.29998722
H       -5.10314549       6.06801891      -1.75636414
H       -3.76470125       3.36902549      -2.29020054
H       -4.43977401       3.90912561      -0.71425795
H       -2.72492568       2.33763737      -0.49336865
H       -1.93094235       0.52387739       0.82263351
H       -0.57968534       0.78844855       1.94689590
H        1.15809841       2.65646377       1.32325554
H        1.32183906       4.99724816       0.59128382
C       -0.47097970       6.38725287      -0.76022684
C       -0.34617768       7.53930315      -1.09435347
Br      -0.14438337       9.40207102      -1.63460797
C       -2.14412997      -3.63630397       6.22062992
C       -1.46338547      -2.98315206       5.03118453
O       -0.90341671      -1.74860161       5.47012740
C       -0.19190648      -1.00438791       4.56630173
C       -0.02466814      -1.34189558       3.21703904
C        0.73343514      -0.53019042       2.35286351
C        0.91125200      -0.91125200       0.91125200
C        1.31839689       0.63919768       2.85664569
C        1.15049050       0.99187597       4.19461120
C        0.40087980       0.17435438       5.04387239
H       -2.59562671      -4.59066312       5.93571206
H       -2.92366238      -2.98270149       6.62578095
H       -1.42485383      -3.81226624       7.02738786
H       -2.20716749      -2.80402940       4.24666428
H       -0.67614960      -3.64981843       4.66097285
H       -0.47897226      -2.23967749       2.80848916
H        0.61357710      -1.94639591       0.71748024
H        1.94821239      -0.77949056       0.58732684
H        1.90293043       1.28791785       2.20660832
H        1.60581749       1.90611797       4.56699339
C        0.26426803       0.58389397       6.41763166
C        0.14985568       0.92688338       7.56815506
Br      -0.03513942       1.48146824       9.42845408
