114
Properties=species:S:1:pos:R:3 pbc="F F F"
C       -1.16263559       4.32874710      -7.27640448
C       -0.49683731       3.72424281      -6.05325770
O        0.10578234       2.49398424      -6.44525779
C        0.81213538       1.79199215      -5.50436770
C        0.93528739       2.16810901      -4.16058216
C        1.69096464       1.39887912      -3.25635738
C        1.82115602       1.82115602      -1.82115602
C        2.31859572       0.23273855      -3.71422270
C        2.19486747      -0.15826782      -5.04633816
C        1.44713776       0.61737798      -5.93559414
H       -1.64566520       5.27791142      -7.02821432
H       -1.91433997       3.64480992      -7.68406218
H       -0.42719377       4.50283934      -8.06886678
H       -1.25610518       3.54578231      -5.28356114
H        0.26314734       4.42054483      -5.68066158
H        0.44765728       3.06381730      -3.78743189
H        1.49217086       2.85275441      -1.66224006
H        2.85229840       1.72492674      -1.46751672
H        2.90226901      -0.38363165      -3.03269561
H        2.68299232      -1.06947485      -5.38288752
C        1.35707305       0.16945445      -7.30119030
C        1.28164386      -0.20568150      -8.44487708
Br       1.15968122      -0.81224461     -10.29412187
C       -7.19712432      -4.44855439       1.20316271
C       -5.95664504      -3.87024277       0.54622462
O       -4.90480790      -4.82189480       0.68167832
C       -3.69253193      -4.53001799       0.11405469
C       -3.39202558      -3.32954306      -0.54240991
C       -2.12417908      -3.10981424      -1.11220783
C       -1.82115602      -1.82115602      -1.82115602
C       -1.14849973      -4.11003025      -1.00702699
C       -1.43139174      -5.30459855      -0.34694751
C       -2.69589243      -5.51317878       0.20896132
H       -8.03749437      -3.75269876       1.12973258
H       -7.00847656      -4.66574733       2.25969175
H       -7.47882539      -5.39450325       0.72881630
H       -5.68801303      -2.93457917       1.04935392
H       -6.16872746      -3.68298515      -0.51264113
H       -4.13368637      -2.54056143      -0.62465868
H       -2.72628885      -1.24477583      -2.03610064
H       -1.28760743      -1.99680363      -2.76033080
H       -0.15764062      -3.96111912      -1.43257322
H       -0.66042284      -6.06706067      -0.26892148
C       -2.93514159      -6.76737817       0.87480195
C       -3.13551276      -7.81777015       1.43244348
Br      -3.45949601      -9.51616515       2.33410266
C       -4.97610255       6.81569375      -1.34928030
C       -4.22694705       5.69873889      -0.64502274
O       -2.99079613       6.22873824      -0.17450999
C       -2.16448115       5.40287450       0.54113958
C       -2.42076116       4.04909773       0.79411966
C       -1.52689298       3.26867091       1.55063725
C       -1.82115602       1.82115602       1.82115602
C       -0.35791814       3.86137105       2.04626778
C       -0.08594056       5.20461258       1.79238466
C       -0.98438576       5.97032356       1.04540056
H       -5.93553770       6.45924697      -1.73432413
H       -4.38525557       7.21127914      -2.18200258
H       -5.15819101       7.64968508      -0.66336375
H       -4.04413009       4.88577983      -1.35667165
H       -4.83229401       5.33774828       0.19431145
H       -3.31732921       3.57206374       0.40951351
H       -2.85823507       1.55971728       1.58921297
H       -1.62007025       1.55999513       2.86467648
H        0.35322468       3.27701959       2.62753806
H        0.82902112       5.64646324       2.17896288
C       -0.65602453       7.35380381       0.81788946
C       -0.38102200       8.51246852       0.62734892
Br       0.06363384      10.38593136       0.31926097
C        6.59461929       1.40348888       5.25138559
C        5.52839811       0.68861192       4.44087701
O        6.11542310       0.27916235       3.20876363
C        5.34293118      -0.43468455       2.33087950
C        3.99090672      -0.74153117       2.53154066
C        3.26747355      -1.49234041       1.58638718
C        1.82115602      -1.82115602       1.82115602
C        3.91574874      -1.92710624       0.42270199
C        5.25774407      -1.61916673       0.20602701
C        5.96665532      -0.87853064       1.15492392
H        6.19316126       1.74295265       6.21025194
H        6.98068903       2.26893079       4.70277389
H        7.44529398       0.73996512       5.43918348
H        4.69786500       1.37856703       4.25394031
H        5.17662682      -0.18277880       5.00494812
H        3.47111958      -0.40436265       3.42342424
H        1.51729771      -1.63412465       2.85574296
H        1.60314460      -2.86524336       1.57635390
H        3.37598486      -2.50263657      -0.32728846
H        5.74307226      -1.95884538      -0.70551265
C        7.35164180      -0.59363482       0.88244119
C        8.51156797      -0.35503456       0.65423691
Br      10.38707048       0.03076187       0.28524988
C       -0.00445707       0.01189536      -1.78238275
H       -0.66409135       0.67374010      -2.43557963
H        0.65740317      -0.63156657      -2.45157240
C       -0.90989263      -0.90692880      -0.91072765
C        0.90977584       0.90977584      -0.90977584
C       -0.00465871       1.77757030       0.00794375
H       -0.66225468       2.44313916      -0.64384735
H        0.64322798       2.43503045       0.67728295
C       -1.78241447       0.00034974      -0.00472694
H       -2.45427497      -0.65498947       0.64260836
H       -2.43311707       0.67328779      -0.65473579
C       -0.91132561       0.90220522       0.91563759
C       -0.01476271      -0.02253852       1.78660255
H       -0.67934791      -0.69751639       2.42135241
H        0.63392994       0.61504881       2.47327442
C        0.01484550      -1.77751727      -0.01636693
H        0.67870853      -2.42144646      -0.68295456
H       -0.62264859      -2.45592969       0.64226336
C        1.78714474       0.01002794       0.00389507
H        2.44202412       0.67113390       0.66197326
H        2.45385902      -0.65136977      -0.64189061
C        0.91606151      -0.90478549       0.90901405
