194
Properties=species:S:1:pos:R:3 pbc="F F F"
C        6.87216254       5.61039662       0.08274075
C        5.37111966       5.45565666       0.26568717
O        4.70739618       5.64984309      -0.99737192
C        3.42710609       5.14937438      -0.93197138
C        3.26143006       3.79530208      -1.25943009
C        1.99296220       3.20892418      -1.27036986
C        1.82492536       1.82492536      -1.82492536
C        0.89848002       4.00569039      -0.89440356
C        1.06470337       5.36857309      -0.59558745
C        2.31490670       5.98519762      -0.68376758
C        2.44809074       7.46189900      -0.72124248
C        3.26840010       8.13735599       0.18679161
C        3.72256737       9.43075366      -0.07381380
C        3.33803877      10.09382820      -1.24422702
C        2.36189926       9.50520098      -2.06261299
C        1.89786672       8.21612120      -1.77774050
O        0.73909810       7.76368096      -2.35372186
C        0.79497182       7.43746237      -3.74135204
C        0.30575387       6.00620517      -3.89208267
C        3.94235235      11.42699903      -1.57794354
H        7.24696273       6.41818326       0.71739317
H        7.15231126       5.82293746      -0.95221699
H        7.37974650       4.69925890       0.40501986
H        5.03513409       6.20821149       0.97481055
H        5.15207976       4.47196107       0.69026073
H        4.13752085       3.21954453      -1.55623660
H        2.77747532       1.29394901      -1.89611169
H        1.36585142       1.85858401      -2.81855776
H       -0.10946047       3.59944588      -0.89993684
H        0.17966693       5.96908618      -0.39183950
H        3.59207707       7.64323811       1.09552243
H        4.40352494       9.89817225       0.63132060
H        1.94683531      10.05643237      -2.90208586
H        1.79526688       7.56255450      -4.17865611
H        0.10258093       8.11262082      -4.25894619
H        0.02385115       5.78724073      -4.91852708
H       -0.54529006       5.81019408      -3.23948754
H        1.09976891       5.31335216      -3.60688165
H        4.03166562      11.57466622      -2.65467981
H        4.93770371      11.53866905      -1.13566841
C        3.12183337      12.48402274      -1.04591960
C        2.43464872      13.36928010      -0.60034955
Br       1.32352927      14.80066638       0.12009954
C        0.09248074      -6.82610326      -5.66619589
C        0.26463973      -5.32491969      -5.50080919
O       -1.00522315      -4.66988392      -5.67950413
C       -0.94604182      -3.39315788      -5.16925215
C       -1.26387116      -3.24098496      -3.81130611
C       -1.28023669      -1.97738516      -3.21463438
C       -1.82492536      -1.82492536      -1.82492536
C       -0.91949758      -0.87355439      -4.00552200
C       -0.63037575      -1.02643532      -5.37205283
C       -0.71351430      -2.27232996      -5.99802765
C       -0.76184561      -2.39397777      -7.47540885
C        0.14724648      -3.20148952      -8.16472144
C       -0.12014906      -3.64737029      -9.45961548
C       -1.29892208      -3.26700673     -10.11016517
C       -2.12032149      -2.30225529      -9.50713645
C       -1.82877434      -1.84627932      -8.21667475
O       -2.41034775      -0.69586191      -7.75029126
C       -3.79480599      -0.76555192      -7.41342833
C       -3.93788732      -0.28904911      -5.97710528
C       -1.63854235      -3.86329589     -11.44545667
H        0.72357105      -7.18928236      -6.48204152
H       -0.94188217      -7.11288942      -5.87269412
H        0.42616371      -7.33835103      -4.76179822
H        0.96494794      -4.97720008      -6.25628289
H        0.69537534      -5.11034578      -4.51880966
H       -1.54899007      -4.12402862      -3.24028330
H       -1.88418779      -2.78224238      -1.30110584
H       -2.82244306      -1.37363603      -1.84691411
H       -0.92982457       0.13102166      -3.59111934
H       -0.43858098      -0.13499982      -5.96701181
H        1.06250205      -3.52176518      -7.68052962
H        0.58662019      -4.31884453      -9.93815225
H       -2.96751696      -1.88958170     -10.04825489
H       -4.22507838      -1.76831176      -7.54308736
H       -4.32336615      -0.07197702      -8.07880477
H       -4.96475537      -0.01720834      -5.74765524
H       -3.29056939       0.56563980      -5.77946197
H       -3.64074823      -1.08626013      -5.29299437
H       -2.71568600      -3.96011608     -11.58520957
H       -1.18922365      -4.85411643     -11.56870109
C       -1.12166273      -3.03006529     -12.50004769
C       -0.68877605      -2.33223466     -13.38326767
Br       0.01116510      -1.20390154     -14.81135967
C       -1.98557541       2.00249392       8.41174909
C       -2.25090949       1.06578820       7.24439146
O       -3.32676728       1.58652242       6.44132149
C       -3.32462905       0.97570102       5.20812178
C       -2.53562464       1.56915026       4.21138733
C       -2.50758495       1.05076686       2.91390443
C       -1.82492536       1.82492536       1.82492536
C       -3.25433881      -0.11090306       2.65513822
C       -4.06603335      -0.68515863       3.64798918
C       -4.17893849      -0.11166359       4.91659700
C       -5.27769256      -0.48622270       5.83976236
C       -5.01168594      -0.93069732       7.13797586
C       -5.99342434      -0.89522032       8.12893081
C       -7.28237949      -0.43892643       7.83264093
C       -7.61410619      -0.17864121       6.49424825
C       -6.62513065      -0.23950678       5.50610455
O       -6.98241937      -0.31046679       4.18454833
C       -7.50065229       0.87986262       3.59327132
C       -6.65801289       1.18140743       2.36462139
C       -8.28697943      -0.27602259       8.93633807
H       -2.11871882       1.47096277       9.35807124
H       -2.64082415       2.87738666       8.40925491
H       -0.94763630       2.33972996       8.38661927
H       -2.53025762       0.09408582       7.64419159
H       -1.33543692       0.93840069       6.65994249
H       -1.98260948       2.47579370       4.45489880
H       -1.15367603       2.58902936       2.22483063
H       -2.56047082       2.30878239       1.17373999
H       -3.27558047      -0.54454875       1.65889053
H       -4.69330441      -1.53424779       3.38153598
H       -4.01849529      -1.27748625       7.39878371
H       -5.72928357      -1.19705652       9.13814954
H       -8.64111287       0.04546236       6.21877831
H       -7.51868058       1.73632564       4.28147127
H       -8.52968820       0.66287889       3.28158085
H       -7.16299288       1.87206839       1.69455769
H       -6.41620291       0.26883623       1.81935242
H       -5.71392089       1.63790220       2.66817964
H       -8.97839842       0.54377942       8.73883382
H       -7.79952682      -0.08554644       9.89806079
C       -9.05436566      -1.48564725       9.08305730
C       -9.69705163      -2.49870791       9.20593465
Br     -10.73622049      -4.13674132       9.40461694
C        6.21208122       0.14465077       6.33238797
C        5.93447630       0.21284910       4.83946195
O        5.95791655      -1.11466011       4.28203453
C        5.34788175      -1.11212383       3.04844627
C        3.96134248      -1.32507593       3.02974382
C        3.26069000      -1.38927196       1.82229427
C        1.82492536      -1.82492536       1.82492536
C        3.98124671      -1.18354090       0.63378636
C        5.37414054      -0.99977606       0.65494730
C        6.09466732      -1.03827703       1.85092756
C        7.56879111      -1.20152069       1.86092042
C        8.39242506      -0.29379842       2.53274100
C        9.69559235      -0.63403282       2.89750965
C       10.21803785      -1.88951251       2.56854363
C        9.47366789      -2.72963650       1.72640884
C        8.17593041      -2.36656956       1.34922844
O        7.57028859      -2.99442952       0.29178281
C        7.13383281      -4.33588337       0.50407005
C        5.65565441      -4.39385791       0.15452939
C       11.56841189      -2.29320317       3.08567986
H        7.10228227       0.73096296       6.57643352
H        6.36095375      -0.87799438       6.68851759
H        5.38285474       0.59231135       6.88344214
H        6.71008727       0.81771416       4.37616193
H        4.97436510       0.70692886       4.66634386
H        3.44644502      -1.49141956       3.97543740
H        1.38075818      -1.76511148       2.82166636
H        1.73107858      -2.85281296       1.45910166
H        3.48399066      -1.23697205      -0.33104045
H        5.90484768      -0.92881284      -0.29306791
H        8.00966642       0.68119006       2.81131640
H       10.28262234       0.07991118       3.46766544
H        9.91047285      -3.64900744       1.34587326
H        7.31379836      -4.69624751       1.52643163
H        7.69515326      -4.97106500      -0.19207033
H        5.32489348      -5.41571984      -0.01099436
H        5.43753621      -3.80062584      -0.73377049
H        5.06646752      -3.97892430       0.97461091
H       11.63161853      -3.36749086       3.26190226
H       11.80942372      -1.78017740       4.02244005
C       12.58591511      -1.93357010       2.13229050
C       13.43807405      -1.63237741       1.33382692
Br      14.81594299      -1.14537430       0.04277883
C       -0.00445707       0.01189536      -1.78238275
H       -0.66409135       0.67374010      -2.43557963
H        0.65740317      -0.63156657      -2.45157240
C       -0.90989263      -0.90692880      -0.91072765
C        0.90977584       0.90977584      -0.90977584
C       -0.00465871       1.77757030       0.00794375
H       -0.66225468       2.44313916      -0.64384735
H        0.64322798       2.43503045       0.67728295
C       -1.78241447       0.00034974      -0.00472694
H       -2.45427497      -0.65498947       0.64260836
H       -2.43311707       0.67328779      -0.65473579
C       -0.91132561       0.90220522       0.91563759
C       -0.01476271      -0.02253852       1.78660255
H       -0.67934791      -0.69751639       2.42135241
H        0.63392994       0.61504881       2.47327442
C        0.01484550      -1.77751727      -0.01636693
H        0.67870853      -2.42144646      -0.68295456
H       -0.62264859      -2.45592969       0.64226336
C        1.78714474       0.01002794       0.00389507
H        2.44202412       0.67113390       0.66197326
H        2.45385902      -0.65136977      -0.64189061
C        0.91606151      -0.90478549       0.90901405
