189
Properties=species:S:1:pos:R:3 pbc="F F F"
C        0.00000000       0.00000000       0.00000000
C       -0.20083641       5.36656898      -2.30342986
C        0.44466231       6.20492068      -1.20235874
O        0.44995101       5.64409664       0.12441669
C        1.18603502       4.49964330       0.29026157
C        0.70003807       3.31235763      -0.26433972
C        1.38747260       2.10320099      -0.14055967
C        0.90781375       0.90781375      -0.90781375
C        2.50838600       2.06007907       0.68945395
C        2.95571351       3.22411806       1.33526564
C        2.30658340       4.45910978       1.12762154
C        2.79684057       5.61661198       1.82165869
C        3.19124621       6.56609278       2.44235362
C        3.58805436       7.80584069       3.25948022
C        3.75409675       8.81044310       3.88997081
C        3.80416451      10.04483278       4.61976589
C        4.97465905      10.42947441       5.28624850
C        5.02812781      11.64209176       5.98940224
C        3.90412841      12.47007274       6.05974431
C        2.72293841      12.04764086       5.43861677
C        2.67833310      10.87791216       4.68199174
O        1.49328529      10.48842228       4.11039711
C        1.06836228      11.32442981       3.02297278
C        0.26570208      12.53248975       3.48804926
C        3.92790146      13.78367471       6.78434393
H       -0.39355361       5.97189985      -3.19471373
H       -1.15100474       4.93260618      -1.97384772
H        0.45880499       4.55077415      -2.61662662
H       -0.14980703       7.12227620      -1.12024028
H        1.45614966       6.51181098      -1.49005489
H       -0.24351500       3.31917837      -0.80013413
H        1.74256443       0.30496089      -1.27615800
H        0.30119320       1.20545995      -1.77054092
H        3.03392191       1.12177538       0.85489602
H        3.80822286       3.15721192       2.00505740
H        5.85405523       9.78871243       5.26626179
H        5.95324153      11.92503489       6.49085503
H        1.82530972      12.64413585       5.56216170
H        0.40752254      10.69992592       2.41113136
H        1.90697409      11.61921837       2.37972474
H       -0.29554637      12.31377580       4.40270121
H       -0.42900947      12.86559144       2.71267267
H        0.92967150      13.37857018       3.69526222
H        4.85381732      13.94184801       7.34092882
H        3.07540197      13.87955783       7.46356019
C        3.83758731      14.86003466       5.83203482
C        3.76194922      15.76148611       5.03447595
Br       3.63964881      17.21905687       3.74489071
C       -5.20180935       0.36914106      -2.63649414
C       -4.82529712       0.96464568      -3.99129029
O       -3.57061717       1.66814212      -4.06715591
C       -2.44485001       0.91296986      -3.86353660
C       -2.17269131       0.46414969      -2.56819381
C       -1.04728888      -0.30884113      -2.27510326
C       -0.90781375      -0.90781375      -0.90781375
C       -0.09722252      -0.50329599      -3.27849260
C       -0.30644950       0.02473256      -4.56284900
C       -1.49180396       0.72456794      -4.87083561
C       -1.65051223       1.25459508      -6.19587672
C       -1.74938703       1.72909735      -7.29469570
C       -1.91346909       2.43109944      -8.65204518
C       -2.11913025       3.08118857      -9.63662736
C       -2.45276409       3.95125760     -10.72772491
C       -1.88222954       3.75649113     -11.99214654
C       -2.21763226       4.59911144     -13.06229651
C       -3.10368972       5.66378477     -12.87455188
C       -3.62241445       5.88356793     -11.59311598
C       -3.34822014       5.01337023     -10.53940362
O       -3.85775562       5.28004897      -9.29360381
C       -5.27983078       5.10629432      -9.19628284
C       -6.05451912       6.35165069      -9.60727414
C       -3.50288205       6.57409610     -13.99844630
H       -6.26171521       0.09750248      -2.60884724
H       -5.00873291       1.07324004      -1.81995629
H       -4.63889860      -0.54882556      -2.43848160
H       -5.58731909       1.71779078      -4.22318114
H       -4.88469779       0.20597303      -4.77929077
H       -2.84513793       0.72775505      -1.75841463
H       -0.46638125      -1.90745796      -0.94984411
H       -1.87953356      -0.98977039      -0.40789012
H        0.81921622      -1.05116731      -3.06885018
H        0.46451298      -0.10857174      -5.31631860
H       -1.17061886       2.94946806     -12.15535505
H       -1.76920568       4.42110382     -14.03931954
H       -4.24197600       6.75763376     -11.42294163
H       -5.48286360       4.92179180      -8.13524529
H       -5.62319736       4.21805928      -9.74132963
H       -5.49096298       7.26516107      -9.38972632
H       -7.02187411       6.39846213      -9.10049733
H       -6.26659862       6.33532356     -10.68170441
H       -2.93376391       6.39112032     -14.91209291
H       -3.40363126       7.62592806     -13.71369640
C       -4.88625738       6.35078902     -14.33011878
C       -6.04483422       6.16376933     -14.60789448
Br      -7.91815499       5.86137432     -15.05703430
C       -5.20321288      -0.36794145       2.63389100
C       -4.82761212      -0.96425481       3.98858442
O       -3.57329654      -1.66837293       4.06470736
C       -2.44708168      -0.91363187       3.86196695
C       -2.17410796      -0.46433387       2.56696134
C       -1.04820769       0.30826772       2.27475786
C       -0.90781375       0.90781375       0.90781375
C       -0.09851965       0.50180976       3.27868170
C       -0.30859353      -0.02672088       4.56269328
C       -1.49441861      -0.72614598       4.86979901
C       -1.65399373      -1.25671783       6.19451796
C       -1.75360374      -1.73168710       7.29306875
C       -1.91864808      -2.43424644       8.65001318
C       -2.12507306      -3.08469926       9.63419524
C       -2.45962323      -3.95512188      10.72473004
C       -1.88958877      -3.76121278      11.98950896
C       -2.22588521      -4.60417607      13.05910819
C       -3.11235209      -5.66834734      12.87045208
C       -3.63058047      -5.88728940      11.58867142
C       -3.35548724      -5.01672779      10.53549408
O       -3.86456493      -5.28258634       9.28933188
C       -5.28651313      -5.10812163       9.19142781
C       -6.06197515      -6.35330766       9.60147507
C       -3.51249487      -6.57899694      13.99373432
H       -6.26297869      -0.09579464       2.60587592
H       -5.01008378      -1.07174907       1.81711444
H       -4.63978088       0.54985438       2.43657050
H       -5.59009414      -1.71715193       4.21976724
H       -4.88702665      -0.20592267       4.77691156
H       -2.84629911      -0.72724660       1.75674500
H       -0.46593401       1.90723180       0.95051752
H       -1.87926141       0.99045807       0.40747459
H        0.81827280       1.04935058       3.06972350
H        0.46207890       0.10587109       5.31658518
H       -1.17767753      -2.95459871      12.15342705
H       -1.77783220      -4.42683449      14.03642368
H       -4.25047067      -6.76098596      11.41779916
H       -5.48896382      -4.92302859       8.13038188
H       -5.62971943      -4.21998093       9.73672921
H       -5.49874421      -7.26697960       9.38376362
H       -7.02911495      -6.39943024       9.09422459
H       -6.27454914      -6.33738334      10.67581366
H       -2.94371839      -6.39671399      14.90773211
H       -3.41360238      -7.63074203      13.70853925
C       -4.89592059      -6.35519829      14.32486485
C       -6.05453964      -6.16776693      14.60218666
Br      -7.92792864      -5.86470626      15.05059259
C        0.56320698      -5.68713020       1.21882525
C        1.55939585      -6.13915195       0.15339393
O        1.67753716      -5.31216414      -1.02007034
C        2.16545746      -4.04728268      -0.81732339
C        1.34340134      -3.11358694      -0.18025285
C        1.76314903      -1.80430869       0.06377555
C        0.90781375      -0.90781375       0.90781375
C        2.97674141      -1.38474025      -0.48247055
C        3.77276343      -2.28318340      -1.21138089
C        3.38055974      -3.62867127      -1.37115937
C        4.22490875      -4.50279199      -2.13590687
C        4.91916748      -5.21004913      -2.81423123
C        5.71339723      -6.15297393      -3.73195634
C        6.20209385      -6.95141423      -4.47893905
C        6.64682342      -7.96944826      -5.38704028
C        7.97182876      -7.98724388      -5.84118769
C        8.41039206      -8.98954897      -6.71912372
C        7.52321077      -9.96799745      -7.17675139
C        6.18776583      -9.90597990      -6.76178323
C        5.75755316      -8.95487501      -5.83817464
O        4.43430571      -8.91442829      -5.47742353
C        4.01527233     -10.02793585      -4.67338887
C        3.58880243     -11.22888419      -5.50754405
C        7.95894881     -11.06785712      -8.09957368
H        0.35178729      -6.49558677       1.92568591
H       -0.38480745      -5.36708696       0.77316966
H        0.96426623      -4.85515048       1.80678904
H        1.20205645      -7.10720509      -0.21655209
H        2.54614091      -6.31727255       0.59460207
H        0.34425017      -3.40315538       0.12839195
H        1.51339917      -0.26125941       1.54902474
H        0.23736828      -1.48788107       1.55194471
H        3.30714021      -0.35509921      -0.36143815
H        4.69517854      -1.92298161      -1.65778279
H        8.67366613      -7.22088025      -5.51804052
H        9.44858311      -8.98887895      -7.05004066
H        5.47714202     -10.61061893      -7.18047708
H        3.13723466      -9.67787811      -4.11879567
H        4.77054214     -10.30208923      -3.92616365
H        3.16430981     -10.91987947      -6.46866106
H        2.85691795     -11.83963391      -4.97264255
H        4.44632013     -11.87883379      -5.71217446
H        8.98061199     -10.93530609      -8.46118157
H        7.28139835     -11.16343338      -8.95343212
C        7.93716216     -12.32365231      -7.39522732
C        7.91891585     -13.37538078      -6.80533725
Br       7.88941310     -15.07593677      -5.85153490
