165
Properties=species:S:1:pos:R:3 pbc="F F F"
C        0.00000000       0.00000000       0.00000000
C        7.91515512      -2.92873825      -4.24967534
C        6.92750439      -1.99580346      -3.56897870
O        5.67255925      -2.09751286      -4.24480174
C        5.10581996      -0.92891987      -4.67654864
C        5.19127480       0.27086656      -3.96136935
C        4.61964087       1.45444535      -4.45788705
C        4.75680173       2.74157392      -3.67259669
C        3.43530868       3.41781945      -3.27383907
C        2.54223610       2.55147143      -2.41765932
C        2.64736947       2.54778078      -1.02541818
C        1.81402780       1.72848094      -0.25989315
C        0.88670847       0.88670847      -0.88670847
C        0.79393768       0.85162652      -2.28017057
C        1.59889441       1.71081659      -3.03242801
O       -0.12344972       0.01213093      -2.86218444
C        0.32311456      -0.61036609      -4.07189137
C       -0.67828821      -1.68595486      -4.45141122
C        3.93713860       1.41576524      -5.68112360
C        3.78763165       0.20986850      -6.36782778
C        4.36472101      -0.95850836      -5.86348608
Br       4.12085694      -2.56665585      -6.84367276
H        8.86678733      -2.94272668      -3.71257651
H        8.09857536      -2.59961814      -5.27619042
H        7.51973503      -3.94677888      -4.30358646
H        7.35653899      -0.98903539      -3.57521621
H        6.77586051      -2.30467875      -2.52873683
H        5.69010841       0.29441934      -2.99646100
H        5.34512624       3.44182504      -4.27958968
H        5.34795881       2.55855415      -2.76701084
H        2.88323523       3.73742617      -4.16668110
H        3.66276414       4.34185511      -2.72720694
H        3.36959691       3.18886619      -0.52278443
H        1.89539232       1.74779661       0.82354951
H        1.50133635       1.74505160      -4.11157615
H        1.31061923      -1.06518793      -3.92821730
H        0.36398680       0.11867322      -4.88714575
H       -0.77049695      -2.42956543      -3.65319302
H       -0.37580098      -2.18845618      -5.37356419
H       -1.67219163      -1.24808083      -4.59899091
H        3.49452099       2.31782637      -6.09617530
H        3.22556366       0.19001683      -7.29704404
C       -9.11881454      -1.80896354       1.69168588
C       -7.69295212      -2.01684753       1.20912002
O       -7.32317985      -0.89776760       0.40109932
C       -6.83465003      -1.17092580      -0.84787291
C       -6.02233313      -2.27619674      -1.12498084
C       -5.56808886      -2.53467840      -2.42920600
C       -4.71550695      -3.75633189      -2.69913351
C       -3.33496997      -3.47730018      -3.31469705
C       -2.45724863      -2.58999207      -2.46412617
C       -1.61411707      -3.12058835      -1.48586301
C       -0.82068571      -2.27413548      -0.70758070
C       -0.88670847      -0.88670847      -0.88670847
C       -1.75191775      -0.33763334      -1.83618369
C       -2.50415119      -1.19680005      -2.64118777
O       -1.79443603       1.02679471      -1.98322432
C       -3.09903491       1.55696129      -2.24256623
C       -3.03031752       3.06868759      -2.12553821
C       -5.92406469      -1.65214839      -3.45781436
C       -6.67641241      -0.51012320      -3.17879231
C       -7.12413281      -0.26810851      -1.87745742
Br      -8.13973531       1.30557917      -1.56371771
H       -9.41339255      -2.60420168       2.38095707
H       -9.80801897      -1.80987835       0.84274967
H       -9.22632015      -0.84307067       2.19284820
H       -7.65146595      -2.97718018       0.68592631
H       -7.00944841      -2.05508063       2.06461045
H       -5.71713716      -2.94165365      -0.32219795
H       -5.27880651      -4.41406904      -3.37366541
H       -4.58054330      -4.32313217      -1.76984833
H       -3.44244747      -3.03274248      -4.31215255
H       -2.82132387      -4.43343145      -3.47707087
H       -1.55803331      -4.19616960      -1.32704463
H       -0.15686200      -2.70174292       0.03896551
H       -3.13636273      -0.79616307      -3.42543830
H       -3.82343993       1.16713694      -1.51734561
H       -3.41973514       1.30912614      -3.25919677
H       -2.69098411       3.36580050      -1.12794702
H       -4.00850035       3.51667153      -2.31747821
H       -2.30980439       3.47547311      -2.84438716
H       -5.59725417      -1.83237310      -4.47889539
H       -6.91417692       0.18251518      -3.98096279
C        3.28047559       6.56906845       5.94749934
C        2.37008159       5.49515486       5.37560637
O        2.05240669       5.84517900       4.02707582
C        0.72542081       5.88460383       3.69426572
C       -0.21867521       4.99154028       4.21329522
C       -1.57689493       5.08825118       3.86682717
C       -2.57630645       4.12432879       4.47033711
C       -3.37869176       3.28556837       3.46270707
C       -2.52011650       2.42224183       2.56900853
C       -2.15083830       1.12828429       2.94144583
C       -1.34762806       0.35651695       2.09825688
C       -0.88670847       0.88670847       0.88670847
C       -1.21707822       2.19250876       0.51614779
C       -2.06041984       2.93681402       1.34490515
O       -0.74526106       2.68221407      -0.67660949
C       -0.36683608       4.06283361      -0.64502984
C        0.36263347       4.38601718      -1.93621557
C       -1.97755522       6.08708949       2.96938273
C       -1.03319232       6.93846358       2.39367203
C        0.31361775       6.83269514       2.75062135
Br       1.54828031       8.01814504       1.92800913
H        3.61390892       6.29819600       6.95235008
H        2.74984752       7.52365267       6.00134250
H        4.15515978       6.72226848       5.30943392
H        1.49778741       5.40956250       6.03094472
H        2.89115217       4.53144692       5.35962383
H        0.09620349       4.19520829       4.88198395
H       -3.27543730       4.70836608       5.08273758
H       -2.06202431       3.44775621       5.16374328
H       -4.01170641       3.93289630       2.84273978
H       -4.07507075       2.64178959       4.01496585
H       -2.49246646       0.70449910       3.88428198
H       -1.08139242      -0.65491357       2.39316056
H       -2.37957410       3.92963208       1.04875793
H        0.29431814       4.26071136       0.20725539
H       -1.25249259       4.70307446      -0.58576127
H        1.24780075       3.75207580      -2.05114442
H        0.67018971       5.43455256      -1.95505582
H       -0.28466897       4.19358909      -2.79953962
H       -3.02316457       6.19382597       2.69153213
H       -1.35516203       7.68453419       1.67292831
C       -2.33499799      -8.69154313       2.87954707
C       -1.70380605      -7.30932671       2.89515897
O       -0.98354922      -7.12920293       1.67419443
C        0.32662360      -6.74759657       1.77922857
C        0.78916199      -5.86900945       2.76533927
C        2.14938747      -5.52836267       2.85422313
C        2.62042691      -4.59838720       3.95215823
C        3.32942572      -3.31972308       3.47781840
C        2.47761665      -2.44566193       2.58808828
C        1.64093230      -1.46155419       3.11808194
C        0.85709069      -0.67457848       2.27073272
C        0.88670847      -0.88670847       0.88670847
C        1.69094866      -1.89145402       0.34333209
C        2.50636935      -2.63917694       1.19659272
O        1.69331029      -2.07489788      -1.01734253
C        1.77525819      -3.44261004      -1.43322838
C        1.51132720      -3.50254908      -2.92670814
C        3.04509560      -6.06768729       1.92124454
C        2.58245971      -6.89008480       0.89278341
C        1.22738254      -7.22304067       0.81927552
Br       0.66190635      -8.34259683      -0.60662932
H       -2.96374915      -8.83929787       3.76108844
H       -1.55787655      -9.46077989       2.87224431
H       -2.93996881      -8.83626232       1.98024910
H       -1.08369388      -7.23276143       3.79365227
H       -2.48394902      -6.54144271       2.94242490
H        0.09025454      -5.42313797       3.46759624
H        3.30354130      -5.16430333       4.59869633
H        1.77038994      -4.31733772       4.58579614
H        4.26201067      -3.56919362       2.95613821
H        3.63544446      -2.73904583       4.35733591
H        1.59866337      -1.29021225       4.19237192
H        0.22279410       0.09873496       2.69558028
H        3.18369122      -3.38253358       0.79173930
H        1.02970648      -4.04994985      -0.90600773
H        2.77780462      -3.84112629      -1.24912514
H        0.52433101      -3.09208388      -3.16328425
H        1.56512805      -4.53246943      -3.28829045
H        2.24847564      -2.89998354      -3.46974073
H        4.10509036      -5.83158722       1.97184509
H        3.28422737      -7.27162233       0.15677483
