194
Properties=species:S:1:pos:R:3 pbc="F F F"
C        8.82505915      -2.01883423      -5.15957936
C        7.83740841      -1.08589943      -4.47888272
O        6.58246328      -1.18760883      -5.15470577
C        6.01572398      -0.01901584      -5.58645267
C        6.10117882       1.18077058      -4.87127338
C        5.52954489       2.36434937      -5.36779107
C        5.66670575       3.65147795      -4.58250071
C        4.34521271       4.32772347      -4.18374309
C        3.45214012       3.46137546      -3.32756335
C        3.55727349       3.45768480      -1.93532221
C        2.72393182       2.63838496      -1.16979718
C        1.79661250       1.79661250      -1.79661250
C        1.70384171       1.76153054      -3.19007459
C        2.50879844       2.62072061      -3.94233204
O        0.78645430       0.92203495      -3.77208847
C        1.23301859       0.29953794      -4.98179539
C        0.23161581      -0.77605084      -5.36131524
C        4.84704262       2.32566926      -6.59102762
C        4.69753567       1.11977252      -7.27773181
C        5.27462503      -0.04860433      -6.77339010
H        9.77669135      -2.03282266      -4.62248054
H        9.00847939      -1.68971411      -6.18609445
H        8.42963905      -3.03687485      -5.21349049
H        8.26644301      -0.07913136      -4.48512024
H        7.68576453      -1.39477473      -3.43864085
H        6.60001244       1.20432337      -3.90636502
H        6.25503026       4.35172907      -5.18949370
H        6.25786284       3.46845818      -3.67691486
H        3.79313926       4.64733019      -5.07658513
H        4.57266817       5.25175914      -3.63711096
H        4.27950094       4.09877022      -1.43268845
H        2.80529634       2.65770064      -0.08635451
H        2.41124038       2.65495563      -5.02148017
H        2.22052326      -0.15528391      -4.83812132
H        1.27389082       1.02857725      -5.79704977
H        0.13940708      -1.51966141      -4.56309704
H        0.53410305      -1.27855216      -6.28346822
H       -0.76228761      -0.33817681      -5.50889493
H        4.40442502       3.22773040      -7.00607933
H        4.13546768       1.09992086      -8.20694807
C        5.08970885      -1.26802342      -7.51664180
C        4.93484154      -2.28928691      -8.13911510
Br       4.68443420      -3.94058360      -9.14560177
C       -2.78733257     -10.00621036       0.82773865
C       -2.54261526      -8.72914286       0.04136642
O       -3.39947041      -7.70977209       0.55968230
C       -4.19179795      -7.05056276      -0.34080009
C       -3.77483224      -6.73868875      -1.63970179
C       -4.63336908      -6.08717335      -2.54114292
C       -4.16027802      -5.79174715      -3.94865925
C       -4.18711010      -4.31065593      -4.35891324
C       -3.33548849      -3.42120247      -3.48438797
C       -1.98697847      -3.19583648      -3.76746555
C       -1.22160890      -2.37574858      -2.93475648
C       -1.79661250      -1.79661250      -1.79661250
C       -3.13487291      -2.04135080      -1.47922313
C       -3.90227912      -2.82375097      -2.34582100
O       -3.66581164      -1.46075781      -0.35400827
C       -4.58964966      -2.28734543       0.36264317
C       -4.88792677      -1.62358040       1.69462695
C       -5.91939183      -5.73022665      -2.11412103
C       -6.31981853      -5.97548562      -0.79973584
C       -5.45635625      -6.62751001       0.08445545
H       -2.09273756     -10.79057843       0.51696676
H       -3.80901397     -10.35983268       0.66398693
H       -2.67452831      -9.83325883       1.90153245
H       -2.70381997      -8.95037399      -1.01823793
H       -1.50660822      -8.39880095       0.17577852
H       -2.76620471      -6.98385638      -1.96063974
H       -4.79264265      -6.36338805      -4.64022233
H       -3.14243964      -6.17774136      -4.08305488
H       -5.21745532      -3.93325174      -4.36634751
H       -3.83954580      -4.22560624      -5.39638623
H       -1.52196326      -3.64623148      -4.64276487
H       -0.17748321      -2.19576448      -3.17610381
H       -4.95790768      -2.97720796      -2.15256054
H       -4.16020935      -3.28108780       0.53793647
H       -5.53039847      -2.38024684      -0.18887254
H       -3.96967012      -1.48845109       2.27527850
H       -5.59274218      -2.22277469       2.27649777
H       -5.31832359      -0.62783940       1.53773248
H       -6.60996887      -5.23563526      -2.79263061
H       -7.30716967      -5.66094520      -0.47422173
C       -5.91420852      -6.85479572       1.43067702
C       -6.29765979      -7.04514751       2.55813758
Br      -6.91766807      -7.35293024       4.38114595
C       -0.19208215      10.31582583       1.45789629
C       -0.46427915       8.88265581       1.88345674
O       -1.33930878       8.28630184       0.92394959
C       -2.47803158       7.69942181       1.40570742
C       -2.52474022       7.00738458       2.62109797
C       -3.72389842       6.44625547       3.09153146
C       -3.74540803       5.73004050       4.42523588
C       -4.20895196       4.26512799       4.38259931
C       -3.35906495       3.38315466       3.49885932
C       -2.22889226       2.72872882       3.99265942
C       -1.45633056       1.92690153       3.14888186
C       -1.79661250       1.79661250       1.79661250
C       -2.90326961       2.47368836       1.27848887
C       -3.69554018       3.23352291       2.14278800
O       -3.20637951       2.32673181      -0.05253359
C       -3.68621096       3.51656914      -0.68842819
C       -3.73148518       3.27093679      -2.18554175
C       -4.88155549       6.57041401       2.31177001
C       -4.82949931       7.19891345       1.06662724
C       -3.63052140       7.75536927       0.61352013
H        0.53913527      10.78384812       2.12163638
H       -1.11580960      10.90017521       1.48887492
H        0.18012729      10.35587386       0.43050812
H       -0.86716801       8.90450947       2.90075440
H        0.46957247       8.30960572       1.88959741
H       -1.62039352       6.88055834       3.20974897
H       -4.40776654       6.29281496       5.09567153
H       -2.74893318       5.77270478       4.88159792
H       -5.25545509       4.20318296       4.05841653
H       -4.19701382       3.86147927       5.40304518
H       -1.94480887       2.82713764       5.03901310
H       -0.58873800       1.41024558       3.55036791
H       -4.59328099       3.71820562       1.77618957
H       -3.01927326       4.36104929      -0.47696188
H       -4.70101072       3.75012264      -0.35161551
H       -2.73861594       3.01065904      -2.56643227
H       -4.09443546       4.15697681      -2.71239316
H       -4.39453399       2.42886319      -2.41496666
H       -5.82650025       6.15671179       2.65502270
H       -5.72776654       7.25591051       0.45865956
C       -3.62698084       8.39029015      -0.67894377
C       -3.62401562       8.92203639      -1.76138229
Br      -3.61922110       9.78182509      -3.51159382
C       10.34429948      -0.45057938       1.17092542
C        8.94627687      -1.04186131       1.24225352
O        8.16593945      -0.24660194       2.13701881
C        7.52613237      -0.90482795       3.15220049
C        6.96942120      -2.18009064       3.00371094
C        6.34792109      -2.83117234       4.08259192
C        5.78265828      -4.22309712       3.89492902
C        4.28344125      -4.37520838       4.19802964
C        3.39812619      -3.49498361       3.34796913
C        2.91550476      -3.92453279       2.11024295
C        2.10623420      -3.08439753       1.34148223
C        1.79661250      -1.79661250       1.79661250
C        2.30129681      -1.33821744       3.01593259
C        3.06933025      -2.20492141       3.79759943
O        1.98115123      -0.06903523       3.43039125
C        3.04174329       0.62448322       4.09709185
C        2.63119768       2.07636972       4.26205226
C        6.27215217      -2.17379310       5.31779424
C        6.76329553      -0.87475333       5.45699114
C        7.38204305      -0.24128902       4.37607873
H       10.95135093      -0.98153460       0.43346371
H       10.83504417      -0.52451915       2.14529640
H       10.30850238       0.61018808       0.90794039
H        9.03919583      -2.08991461       1.54332145
H        8.47174749      -1.00242739       0.25545577
H        6.99686582      -2.67628802       2.03754698
H        6.34738943      -4.90321949       4.54564411
H        5.97238911      -4.56176220       2.86908456
H        4.08413012      -4.17463700       5.25828746
H        3.99651573      -5.42293888       4.04208365
H        3.15474258      -4.91896182       1.73725521
H        1.72406280      -3.43771943       0.38756927
H        3.42071643      -1.89253303       4.77442673
H        3.96559402       0.57085712       3.50862377
H        3.20986960       0.20366245       5.09331069
H        2.42968087       2.53577931       3.28894115
H        3.41462987       2.64494192       4.76933115
H        1.70815241       2.14842020       4.84869831
H        5.80757821      -2.65690017       6.17375636
H        6.66526860      -0.36563932       6.41142868
C        7.86962059       1.09990430       4.56861093
C        8.27796677       2.22315369       4.72985664
Br       8.93822802       4.03935297       4.99057732
C       -0.00445707       0.01189536      -1.78238275
H       -0.66409135       0.67374010      -2.43557963
H        0.65740317      -0.63156657      -2.45157240
C       -0.90989263      -0.90692880      -0.91072765
C        0.90977584       0.90977584      -0.90977584
C       -0.00465871       1.77757030       0.00794375
H       -0.66225468       2.44313916      -0.64384735
H        0.64322798       2.43503045       0.67728295
C       -1.78241447       0.00034974      -0.00472694
H       -2.45427497      -0.65498947       0.64260836
H       -2.43311707       0.67328779      -0.65473579
C       -0.91132561       0.90220522       0.91563759
C       -0.01476271      -0.02253852       1.78660255
H       -0.67934791      -0.69751639       2.42135241
H        0.63392994       0.61504881       2.47327442
C        0.01484550      -1.77751727      -0.01636693
H        0.67870853      -2.42144646      -0.68295456
H       -0.62264859      -2.45592969       0.64226336
C        1.78714474       0.01002794       0.00389507
H        2.44202412       0.67113390       0.66197326
H        2.45385902      -0.65136977      -0.64189061
C        0.91606151      -0.90478549       0.90901405
