102
Properties=species:S:1:pos:R:3 pbc="F F F"
C        1.82634707       1.82634707      -1.82634707
C        2.86355947       2.58601174      -0.99171970
C        3.98690082       1.68775364      -0.44329696
C        4.94496865       1.18090820      -1.52462394
C        5.49041420       2.28780943      -2.42237051
Br       6.89311424       3.28336092      -1.47729917
C        4.41495081       3.25103835      -2.91714907
C        3.47735313       3.73570219      -1.80872217
H        1.13210138       2.51271041      -2.32059414
H        2.26799463       1.17018396      -2.57972431
H        2.34819129       3.03692812      -0.13282158
H        3.57288153       0.83090318       0.09924495
H        4.55792108       2.25938819       0.29970917
H        5.76288054       0.62546527      -1.04956237
H        4.41334719       0.45491311      -2.15169503
H        6.01680905       1.84799387      -3.27628254
H        4.86634326       4.11872925      -3.41356397
H        3.81685878       2.74087815      -3.68251633
H        4.02918203       4.39815011      -1.12989362
H        2.68301817       4.35082975      -2.24931804
C       -1.82634707      -1.82634707      -1.82634707
C       -1.35946630      -1.79582231      -3.28600230
C       -0.04060925      -2.55302221      -3.52431996
C       -0.17883832      -4.07264284      -3.39901962
C       -1.32284737      -4.65039164      -4.22735513
Br      -0.80245332      -4.73342481      -6.11789621
C       -2.62792105      -3.87251228      -4.08270489
C       -2.44988356      -2.35801725      -4.21387670
H       -2.83325358      -1.41114188      -1.72101046
H       -1.80971734      -2.82472373      -1.38346182
H       -1.19825940      -0.74758618      -3.57209541
H        0.73922422      -2.20604807      -2.83771591
H        0.32315116      -2.30975878      -4.53099248
H        0.77426420      -4.54438254      -3.66778985
H       -0.35141020      -4.32324544      -2.34529969
H       -1.48373097      -5.69970948      -3.95764501
H       -3.36926475      -4.21391647      -4.81545526
H       -3.05464698      -4.09000206      -3.09560422
H       -2.19441482      -2.11077774      -5.25203320
H       -3.40762530      -1.86193613      -4.01360453
C       -1.82634707       1.82634707       1.82634707
C       -2.24639302       3.10394578       1.09095211
C       -3.28101151       2.85917328      -0.02223337
C       -4.66644374       2.47786366       0.50619338
C       -5.19527415       3.43247486       1.57284513
Br      -5.83927967       5.08400348       0.73049120
C       -4.16667891       3.76684915       2.64961017
C       -2.79531430       4.14297127       2.08349193
H       -1.20993132       2.05422447       2.70125014
H       -2.66906859       1.20706563       2.14176868
H       -1.35253046       3.54042870       0.62498183
H       -2.93511116       2.08349721      -0.71406861
H       -3.36782077       3.77335885      -0.62357952
H       -5.36614645       2.40736801      -0.33560628
H       -4.61233312       1.47067410       0.93694811
H       -6.09424540       3.01125992       2.03558014
H       -4.52611139       4.57799317       3.29453193
H       -4.04792023       2.89171830       3.30061474
H       -2.86496054       5.11439249       1.57787273
H       -2.08839255       4.28439908       2.91037432
C        1.82634707      -1.82634707       1.82634707
C        1.62507534      -1.50475253       3.31146305
C        0.27047122      -1.98280024       3.86467996
C        0.16295503      -3.50553746       3.98200829
C        1.33533951      -4.14357925       4.72167537
Br       1.13900323      -3.86089681       6.65387430
C        2.69551311      -3.62941333       4.25821179
C        2.76449254      -2.10401936       4.15326559
H        2.84995817      -1.60898476       1.50646300
H        1.58942312      -2.86081750       1.56766227
H        1.66915950      -0.41410545       3.43467605
H       -0.55634190      -1.61125510       3.24962656
H        0.12324667      -1.53732168       4.85703176
H       -0.78852604      -3.76343375       4.46300046
H        0.11475849      -3.93235339       2.97284345
H        1.29358103      -5.23284457       4.61465986
H        3.49350704      -3.98225115       4.92287829
H        2.91118757      -4.05768389       3.27138181
H        2.72875661      -1.66858517       5.15988398
H        3.73573017      -1.81323993       3.73419585
C       -0.00445707       0.01189536      -1.78238275
H       -0.66409135       0.67374010      -2.43557963
H        0.65740317      -0.63156657      -2.45157240
C       -0.90989263      -0.90692880      -0.91072765
C        0.90977584       0.90977584      -0.90977584
C       -0.00465871       1.77757030       0.00794375
H       -0.66225468       2.44313916      -0.64384735
H        0.64322798       2.43503045       0.67728295
C       -1.78241447       0.00034974      -0.00472694
H       -2.45427497      -0.65498947       0.64260836
H       -2.43311707       0.67328779      -0.65473579
C       -0.91132561       0.90220522       0.91563759
C       -0.01476271      -0.02253852       1.78660255
H       -0.67934791      -0.69751639       2.42135241
H        0.63392994       0.61504881       2.47327442
C        0.01484550      -1.77751727      -0.01636693
H        0.67870853      -2.42144646      -0.68295456
H       -0.62264859      -2.45592969       0.64226336
C        1.78714474       0.01002794       0.00389507
H        2.44202412       0.67113390       0.66197326
H        2.45385902      -0.65136977      -0.64189061
C        0.91606151      -0.90478549       0.90901405
