186
Properties=species:S:1:pos:R:3 pbc="F F F"
C        1.82834372       1.82834372      -1.82834372
H        2.84689379       1.44809694      -1.69612454
C        1.73162884       3.27169231      -1.35707317
C        2.56216063       4.19020405      -2.24890355
C        2.19565589       4.06604678      -3.74071956
H        1.17753261       4.45382667      -3.87685932
C        2.21668337       2.59511806      -4.19261231
C        1.39221948       1.68807602      -3.27973491
C        3.16972298       4.93803076      -4.56200896
C        2.87356132       4.97910935      -6.06670184
C        3.85383256       5.87897889      -6.85081777
H        3.82525046       6.88521680      -6.41292806
C        3.40050202       5.98721035      -8.31855510
C        4.36744941       6.81764051      -9.16198702
C        5.78479485       6.26796368      -9.06824793
H        5.84665959       5.28488659      -9.54711388
C        6.26193119       6.18635387      -7.62502494
C        5.30129666       5.35956625      -6.77283742
H        2.08259063       3.35989303      -0.32100040
H        0.68703248       3.61093968      -1.36291046
H        2.42735234       5.22819192      -1.91954641
H        3.62471556       3.95168198      -2.10819503
H        1.82140311       2.50554232      -5.20970182
H        3.25173622       2.23061499      -4.21856130
H        0.32897164       1.94236172      -3.38720319
H        1.49857697       0.64838505      -3.61272062
H        3.14241996       5.96350894      -4.17444355
H        4.18566839       4.56387042      -4.39436597
H        1.85005152       5.34639207      -6.21281553
H        2.91161013       3.96766259      -6.48781191
H        2.40266597       6.44047287      -8.36744881
H        3.31428004       4.98402722      -8.75620153
H        4.02866840       6.82122855     -10.20468370
H        4.33666635       7.86081666      -8.81994140
H        7.26230025       5.73978710      -7.57791573
H        6.34858362       7.19101915      -7.19140125
H        5.33707674       4.31200102      -7.10044719
H        5.66328660       5.38282947      -5.73988973
C        6.67656779       7.11624353      -9.81575199
C        7.42342763       7.82667791     -10.44178664
Br       8.63103682       8.97539021     -11.45403172
C       -1.82834372      -1.82834372      -1.82834372
H       -1.31511450      -1.88159612      -2.79440465
C       -3.19567110      -1.17980336      -1.98491987
C       -4.12104548      -2.06014996      -2.82007278
C       -4.24471978      -3.49261389      -2.26508854
H       -4.76583895      -3.44237842      -1.30000123
C       -2.85665309      -4.11512321      -2.03263744
C       -1.93898564      -3.21353113      -1.20751365
C       -5.09767683      -4.32856760      -3.24351827
C       -5.37724326      -5.76354991      -2.77857934
C       -6.25185235      -6.56045968      -3.77131721
H       -7.18564960      -6.00604272      -3.93170300
C       -6.61118043      -7.92979831      -3.16528872
C       -7.42711374      -8.79151539      -4.12844781
C       -6.70495360      -8.95683287      -5.45922000
H       -5.79552575      -9.55330529      -5.32982902
C       -6.37229697      -7.61166158      -6.08935145
C       -5.55800820      -6.74175416      -5.13393797
H       -3.10023580      -0.19778143      -2.46546682
H       -3.65455048      -1.00359613      -1.00273601
H       -5.11342935      -1.59430964      -2.86735168
H       -3.74082457      -2.09413627      -3.84963173
H       -2.95344179      -5.07263181      -1.51057365
H       -2.37837611      -4.32430988      -2.99822653
H       -2.33028992      -3.14487869      -0.18336794
H       -0.94880667      -3.67928815      -1.13158782
H       -6.05706543      -3.82153116      -3.40177586
H       -4.58594437      -4.34589958      -4.21206083
H       -5.88019455      -5.72483597      -1.80422861
H       -4.43492148      -6.30336566      -2.62879750
H       -7.18246963      -7.78869851      -2.23941951
H       -5.69402757      -8.46805588      -2.89242534
H       -7.61227869      -9.77077141      -3.67153054
H       -8.41049245      -8.32667258      -4.28025938
H       -5.80753380      -7.75406241      -7.01840688
H       -7.29140150      -7.07724256      -6.36235997
H       -4.56776119      -7.19359780      -4.98816596
H       -5.39781088      -5.77203418      -5.61616074
C       -7.53439820      -9.71188379      -6.36228133
C       -8.22905805     -10.34423894      -7.11859519
Br      -9.35226427     -11.36670374      -8.34149074
C       -1.82834372       1.82834372       1.82834372
H       -1.14955484       2.55642209       2.28513834
C       -2.49109770       0.97213580       2.89716083
C       -3.42089859       1.81365155       3.76671808
C       -4.46951164       2.58821402       2.94469656
H       -5.15576062       1.86049140       2.49196658
C       -3.80075208       3.38972587       1.81393579
C       -2.86224759       2.53465003       0.96313279
C       -5.27321914       3.49585032       3.90069325
C       -6.41573315       4.27134932       3.23229003
C       -7.21058732       5.14944405       4.22359786
H       -7.58579704       4.50689213       5.03070614
C       -8.42465723       5.77205818       3.50955206
C       -9.21837909       6.70328958       4.42540826
C       -8.32129619       7.78262028       5.01708999
H       -7.97791312       8.46688639       4.23386055
C       -7.13336228       7.18333942       5.75660830
C       -6.33401492       6.24940337       4.85028203
H       -1.73199569       0.49869971       3.53278866
H       -3.06620608       0.15702449       2.43765204
H       -3.92572533       1.16009491       4.48927044
H       -2.81489110       2.51865518       4.35104629
H       -4.56089105       3.82119026       1.15456594
H       -3.23369852       4.22770372       2.23951027
H       -3.45638806       1.80206978       0.40007871
H       -2.36823433       3.17193412       0.21951419
H       -5.69466000       2.88083873       4.70487372
H       -4.57536210       4.19684942       4.37169326
H       -7.09704044       3.55337517       2.75884351
H       -6.02260489       4.91100183       2.43347791
H       -9.08824245       4.97885924       3.14348596
H       -8.08955005       6.33585226       2.62910648
H      -10.03824832       7.15872350       3.85760882
H       -9.68337632       6.10995735       5.22409074
H       -6.47454122       7.97719200       6.12826986
H       -7.47201892       6.62198721       6.63699790
H       -5.85471149       6.83808362       4.05672983
H       -5.53065375       5.80711479       5.44823726
C       -9.08698185       8.59403177       5.92754969
C       -9.72824360       9.27358890       6.69005968
Br     -10.76510959      10.37237530       7.92297386
C        1.82834372      -1.82834372       1.82834372
H        2.38357117      -2.47086602       1.13667808
C        0.94937052      -2.66512061       2.74590319
C        1.80031972      -3.52281016       3.67813835
C        2.82016083      -2.69645827       4.48580312
H        2.26586192      -2.05701757       5.18533912
C        3.65255451      -1.79163107       3.56022816
C        2.78461639      -0.95144878       2.62396525
C        3.70625294      -3.66485439       5.29865537
C        4.72116437      -2.97724614       6.22096200
C        5.57244843      -3.97704704       7.03413376
H        4.89413920      -4.62559370       7.60366242
C        6.45384427      -3.21293158       8.03949162
C        7.36675170      -4.14672600       8.83359923
C        8.21692400      -5.00138128       7.90270119
H        8.93777615      -4.37832633       7.36255758
C        7.35900067      -5.79056838       6.92374096
C        6.44138787      -4.86644238       6.12587008
H        0.29148618      -3.31598238       2.15601551
H        0.29383554      -2.02039180       3.34665528
H        1.14119762      -4.07018046       4.36371260
H        2.32729902      -4.27766044       3.07963311
H        4.27247653      -1.11115764       4.15301307
H        4.33605690      -2.40542255       2.95943306
H        2.22611205      -0.21491397       3.21751053
H        3.43207883      -0.37962987       1.94797393
H        3.06215161      -4.30866366       5.90955717
H        4.23028707      -4.31975717       4.59386053
H        4.17835406      -2.31956176       6.91134330
H        5.39292107      -2.33870630       5.63545727
H        5.82086986      -2.65172461       8.73799318
H        7.07024411      -2.47569414       7.50857053
H        8.00724893      -3.55192987       9.49540184
H        6.75104543      -4.78275540       9.48362358
H        7.99260144      -6.35674804       6.23065361
H        6.74552662      -6.52765597       7.45782144
H        7.04976221      -4.23659293       5.46316981
H        5.81235003      -5.49063442       5.48302134
C        9.00887926      -5.91579473       8.68388933
C        9.67214179      -6.68161599       9.33813440
Br      10.74458121      -7.91988420      10.39599334
C       -0.00445707       0.01189536      -1.78238275
H       -0.66409135       0.67374010      -2.43557963
H        0.65740317      -0.63156657      -2.45157240
C       -0.90989263      -0.90692880      -0.91072765
C        0.90977584       0.90977584      -0.90977584
C       -0.00465871       1.77757030       0.00794375
H       -0.66225468       2.44313916      -0.64384735
H        0.64322798       2.43503045       0.67728295
C       -1.78241447       0.00034974      -0.00472694
H       -2.45427497      -0.65498947       0.64260836
H       -2.43311707       0.67328779      -0.65473579
C       -0.91132561       0.90220522       0.91563759
C       -0.01476271      -0.02253852       1.78660255
H       -0.67934791      -0.69751639       2.42135241
H        0.63392994       0.61504881       2.47327442
C        0.01484550      -1.77751727      -0.01636693
H        0.67870853      -2.42144646      -0.68295456
H       -0.62264859      -2.45592969       0.64226336
C        1.78714474       0.01002794       0.00389507
H        2.44202412       0.67113390       0.66197326
H        2.45385902      -0.65136977      -0.64189061
C        0.91606151      -0.90478549       0.90901405
