157
Properties=species:S:1:pos:R:3 pbc="F F F"
C        0.00000000       0.00000000       0.00000000
C        0.91594766       0.91594766      -0.91594766
C        2.17558616       0.17219975      -1.36274251
H        2.63272869      -0.32138223      -0.49392359
C        3.18923917       1.17459803      -1.92776270
C        4.46553412       0.49142184      -2.41472742
C        4.19474153      -0.60750004      -3.46192214
H        3.77084042      -0.12110004      -4.35198140
C        3.13825860      -1.59058318      -2.91584094
C        1.87079439      -0.89266951      -2.42458354
C        5.50441761      -1.34750333      -3.89296433
H        5.90156871      -1.87305303      -3.01333165
C        6.59110637      -0.36920793      -4.38078780
C        7.85470383      -1.07850585      -4.86777758
C        7.55242575      -2.09594558      -5.97474386
H        7.13029984      -1.56034954      -6.83565992
C        6.50230049      -3.09408532      -5.47288130
C        5.23132832      -2.39981155      -4.98638020
C        8.80508668      -2.85363994      -6.41767793
Br       9.99419247      -1.71407906      -7.45949226
H        1.15950988       1.78399986      -0.29636659
H        0.29978677       1.24104102      -1.75890357
H        3.45268815       1.91126129      -1.15901788
H        2.73961460       1.73281425      -2.75918203
H        5.11070647       1.26950564      -2.83550673
H        4.99663001       0.06111742      -1.55643454
H        2.83924876      -2.30207278      -3.69202053
H        3.56987965      -2.17547622      -2.09363733
H        1.36036767      -0.43226183      -3.27996145
H        1.19105418      -1.65235053      -2.02387347
H        6.88904847       0.30646623      -3.57189609
H        6.19099194       0.25456330      -5.19066950
H        8.56147481      -0.31999371      -5.22284411
H        8.33344794      -1.58139650      -4.01747696
H        6.23882640      -3.79302752      -6.27646805
H        6.91850862      -3.69629066      -4.65466946
H        4.73059992      -1.92456696      -5.83969082
H        4.55726501      -3.17731238      -4.61238021
H        9.38687078      -3.23326631      -5.57183917
H        8.55696060      -3.68797773      -7.08169131
C       -0.91594766      -0.91594766      -0.91594766
C       -1.62030336      -1.99642523      -0.09379985
H       -0.88985404      -2.48287324       0.56745722
C       -2.19439429      -3.06306888      -1.03413673
C       -2.93317621      -4.16343764      -0.27506953
C       -4.05844154      -3.61746622       0.62674412
H       -4.81525260      -3.16010956      -0.02635963
C       -3.49467247      -2.50910530       1.54026140
C       -2.75110494      -1.41998269       0.76837921
C       -4.75380315      -4.74955741       1.45348195
H       -4.00828819      -5.17392284       2.14036370
C       -5.26508836      -5.89402517       0.55642729
C       -6.00530926      -6.97828660       1.33962030
C       -7.17504290      -6.40540907       2.14922795
H       -7.89747534      -5.96016757       1.45203268
C       -6.65744639      -5.29583049       3.07218041
C       -5.91850932      -4.20217671       2.30278905
C       -7.87633170      -7.47756304       2.98477007
Br      -8.92669926      -8.67770392       1.86479751
H       -0.23524907      -1.35112299      -1.65350426
H       -1.61939949      -0.25297586      -1.42735601
H       -1.38582892      -3.51769521      -1.61944319
H       -2.88127000      -2.59752642      -1.75281445
H       -3.34164631      -4.85433900      -1.01973354
H       -2.21564000      -4.73007016       0.33152819
H       -4.30254933      -2.02211780       2.09547062
H       -2.81759982      -2.95213090       2.28168997
H       -3.46498391      -0.87819623       0.13511285
H       -2.35532499      -0.69522025       1.48796812
H       -4.42926788      -6.37897101       0.04082810
H       -5.92969520      -5.48885852      -0.21767103
H       -6.36012235      -7.73500366       0.63080080
H       -5.29718977      -7.48242185       2.01008321
H       -7.49566526      -4.84217718       3.61557551
H       -5.98426332      -5.72082006       3.82819596
H       -6.62989815      -3.67223229       1.65640665
H       -5.55193548      -3.47727307       3.03687570
H       -7.17190726      -8.09953150       3.54599513
H       -8.59596690      -7.03717775       3.68247046
C       -0.91594766       0.91594766       0.91594766
C       -0.49997645       2.38505051       0.82550147
H        0.59073942       2.46059709       0.93541238
C       -1.14872325       3.17270400       1.97017264
C       -0.79069817       4.65678543       1.92419978
C       -1.15135122       5.31872819       0.57908422
H       -2.24502128       5.28290052       0.47379999
C       -0.54101525       4.50044780      -0.57794668
C       -0.90038703       3.01663980      -0.51431840
C       -0.70906723       6.81866057       0.52215081
H        0.38793495       6.85062731       0.57915497
C       -1.26088835       7.63281269       1.70898520
C       -0.89348309       9.11489525       1.63559722
C       -1.35349775       9.75677831       0.32094797
H       -2.44845123       9.69210748       0.26505152
C       -0.76887351       8.97090844      -0.85868548
C       -1.13128571       7.48786150      -0.80125022
C       -0.92947892      11.22267322       0.21697252
Br      -1.97532574      12.35189143       1.41238850
H       -0.78800689       0.52302467       1.92884477
H       -1.94939652       0.75245844       0.59787640
H       -0.82794767       2.76040105       2.93461861
H       -2.24021842       3.06386915       1.92752330
H       -1.32423000       5.14567785       2.74581099
H        0.28230198       4.77716926       2.11931469
H       -0.89172036       4.88022912      -1.54275298
H        0.55113047       4.60791112      -0.56873990
H       -1.98000261       2.90191533      -0.67385065
H       -0.40312533       2.50459756      -1.34514577
H       -0.86600662       7.24662046       2.65478371
H       -2.35322535       7.53213329       1.75086610
H       -1.34517045       9.62559112       2.49356364
H        0.19391260       9.22011382       1.74332718
H       -1.13684669       9.38924223      -1.80382199
H        0.32412258       9.07347876      -0.87246877
H       -2.21380958       7.37521241      -0.94329820
H       -0.64451832       6.99959020      -1.65177567
H        0.12344613      11.37418857       0.47470120
H       -1.11166169      11.62415043      -0.78513793
C        0.91594766      -0.91594766       0.91594766
C        1.88083818      -0.07566112       1.75402914
H        2.36613012       0.67023724       1.10937717
C        2.97219351      -0.97998546       2.33942093
C        3.95918367      -0.20363772       3.20886199
C        3.27097188       0.57191959       4.35011134
H        2.81218774      -0.16581528       5.02371877
C        2.13939714       1.44590559       3.77002483
C        1.16488028       0.65794445       2.89577259
C        4.28748976       1.42101668       5.18340553
H        4.71015676       2.18922859       4.52091916
C        5.45739373       0.56981581       5.71510831
C        6.42646438       1.36894159       6.58645278
C        5.71527015       2.04759691       7.76355078
H        5.27420175       1.26939739       8.40080587
C        4.57858374       2.92744763       7.22996036
C        3.59905307       2.14130587       6.36014978
C        6.67109551       2.90086016       8.59888932
Br       7.87564176       1.79162170       9.65558561
H        1.45091896      -1.56886794       0.22008942
H        0.24576146      -1.52299025       1.53097964
H        3.52403712      -1.47057870       1.52835150
H        2.51499126      -1.77831520       2.93830442
H        4.67364857      -0.92699803       3.61507225
H        4.52741919       0.49247689       2.57923967
H        1.55764830       1.90436749       4.57591569
H        2.57182662       2.26457896       3.18079309
H        0.62360064      -0.06270748       3.52175916
H        0.41771754       1.35306969       2.49792926
H        6.03609818       0.15269745       4.88401006
H        5.06592241      -0.27780787       6.29249446
H        7.20745179       0.68979284       6.94666625
H        6.92712001       2.12356081       5.96596920
H        4.02877431       3.37420662       8.06769924
H        4.99171538       3.75909365       6.64426569
H        3.07070296       1.40861144       6.98363226
H        2.84864778       2.84866974       5.99235481
H        7.29684973       3.55469377       7.98328767
H        6.13121151       3.51087139       9.33033407
