106
Properties=species:S:1:pos:R:3 pbc="F F F"
C        1.78801263       1.78801263      -1.78801263
C        1.72240675       3.17016314      -1.69984526
C        2.54512240       3.94143092      -2.52268093
C        3.41766799       3.31529141      -3.41860831
N        3.48143752       1.95591424      -3.50540399
C        2.67216898       1.22994831      -2.69461051
C        4.31445359       4.08486303      -4.31609961
C        5.17584087       3.45893321      -5.22277586
C        5.99934703       4.23036105      -6.04439286
C        5.94640915       5.61207085      -5.94399422
C        5.07307562       6.17001623      -5.02686034
N        4.26236850       5.44401363      -4.21776322
H        1.04526271       3.65790604      -1.00475374
H        2.50288245       5.02571746      -2.46252941
H        2.76527042       0.15331505      -2.80562145
H        5.20853055       2.37496019      -5.29240577
H        6.66803294       3.74330141      -6.74757809
H        4.99055232       7.24638695      -4.90551090
C        6.78016802       6.44339590      -6.77305683
C        7.47844107       7.13963063      -7.46739677
Br       8.60748954       8.26538330      -8.59008571
C       -1.78801263      -1.78801263      -1.78801263
C       -1.31124538      -2.98796922      -2.29320055
C       -2.14829416      -3.76590077      -3.09503932
C       -3.44647568      -3.32835694      -3.37673509
N       -3.91476335      -2.14784118      -2.88015122
C       -3.08174447      -1.41145494      -2.10352840
C       -4.37886924      -4.11429238      -4.22225461
C       -5.67167029      -3.66939606      -4.51648358
C       -6.50886524      -4.44812758      -5.31710812
C       -6.03825122      -5.65626297      -5.80796003
C       -4.74966964      -6.04005618      -5.48022637
N       -3.91610144      -5.30258037      -4.70546354
H       -0.30335857      -3.32905895      -2.07550497
H       -1.78597661      -4.70851764      -3.49663507
H       -3.50691914      -0.48211644      -1.73517134
H       -6.02945915      -2.72052552      -4.12591183
H       -7.51250599      -4.10193563      -5.54447082
H       -4.32955281      -6.97635067      -5.83654669
C       -6.87077062      -6.48920872      -6.63664141
C       -7.56800561      -7.18680079      -7.33066207
Br      -8.69537562      -8.31474817      -8.45283477
C       -1.78801263       1.78801263       1.78801263
C       -2.90538196       1.26570085       2.42133234
C       -3.68573317       2.10408401       3.21941707
C       -3.33370197       3.44942331       3.36844243
N       -2.23501056       3.96283479       2.74491040
C       -1.49370096       3.12710081       1.97592604
C       -4.12592948       4.38528676       4.20419998
C       -3.78258626       5.73409147       4.34087220
C       -4.56224766       6.57179922       5.14005406
C       -5.66957301       6.04559133       5.78730988
C       -5.95547482       4.70302542       5.61145195
N       -5.21538123       3.86801359       4.84075053
H       -3.18017626       0.22125399       2.30649223
H       -4.56381828       1.70617902       3.72113201
H       -0.63084863       3.58894072       1.50441757
H       -2.91218079       6.13515158       3.82856414
H       -4.29444542       7.61866967       5.24579735
H       -6.80996732       4.23779712       6.09468572
C       -6.49908001       6.87621435       6.62132639
C       -7.19379212       7.57186113       7.31981522
Br      -8.31708285       8.69666313       8.44921258
C        1.78801263      -1.78801263       1.78801263
C        2.91571150      -1.27017718       2.40652646
C        3.69570258      -2.10839651       3.20513516
C        3.33297819      -3.44910220       3.36948732
N        2.22412420      -3.95811935       2.76051220
C        1.48341125      -3.12264136       1.99067519
C        4.12431104      -4.38456341       4.20654177
C        3.77013099      -5.72892373       4.35849522
C        4.54944830      -6.56645161       5.15820103
C        5.66726515      -6.04450439       5.79070468
C        5.96359770      -4.70621391       5.60014058
N        5.22407865      -3.87148442       4.82858228
H        3.19881502      -0.22933348       2.27977398
H        4.58182893      -1.71397216       3.69532823
H        0.61221627      -3.58086233       1.53112832
H        2.89155944      -6.12666752       3.85766955
H        4.27323218      -7.60986363       5.27581663
H        6.82657010      -4.24442393       6.07145614
C        6.49680297      -6.87508686       6.62473093
C        7.19154088      -7.57069967       7.32322791
Br       8.31487334      -8.69544676       8.45263845
C       -0.00445707       0.01189536      -1.78238275
H       -0.66409135       0.67374010      -2.43557963
H        0.65740317      -0.63156657      -2.45157240
C       -0.90989263      -0.90692880      -0.91072765
C        0.90977584       0.90977584      -0.90977584
C       -0.00465871       1.77757030       0.00794375
H       -0.66225468       2.44313916      -0.64384735
H        0.64322798       2.43503045       0.67728295
C       -1.78241447       0.00034974      -0.00472694
H       -2.45427497      -0.65498947       0.64260836
H       -2.43311707       0.67328779      -0.65473579
C       -0.91132561       0.90220522       0.91563759
C       -0.01476271      -0.02253852       1.78660255
H       -0.67934791      -0.69751639       2.42135241
H        0.63392994       0.61504881       2.47327442
C        0.01484550      -1.77751727      -0.01636693
H        0.67870853      -2.42144646      -0.68295456
H       -0.62264859      -2.45592969       0.64226336
C        1.78714474       0.01002794       0.00389507
H        2.44202412       0.67113390       0.66197326
H        2.45385902      -0.65136977      -0.64189061
C        0.91606151      -0.90478549       0.90901405
