98
Properties=species:S:1:pos:R:3 pbc="F F F"
C        1.78801263       1.78801263      -1.78801263
C        1.72240675       3.17016314      -1.69984526
C        2.54512240       3.94143092      -2.52268093
C        3.41766799       3.31529141      -3.41860831
N        3.48143752       1.95591424      -3.50540399
C        2.67216898       1.22994831      -2.69461051
C        4.31445359       4.08486303      -4.31609961
C        5.17584087       3.45893321      -5.22277586
C        5.99934703       4.23036105      -6.04439286
C        5.94640915       5.61207085      -5.94399422
Br       7.03735441       6.69983154      -7.02879458
C        5.07307562       6.17001623      -5.02686034
N        4.26236850       5.44401363      -4.21776322
H        1.04526271       3.65790604      -1.00475374
H        2.50288245       5.02571746      -2.46252941
H        2.76527042       0.15331505      -2.80562145
H        5.20853055       2.37496019      -5.29240577
H        6.66803294       3.74330141      -6.74757809
H        4.99055232       7.24638695      -4.90551090
C       -1.78801263      -1.78801263      -1.78801263
C       -1.30366779      -2.97687875      -2.31186861
C       -2.14097714      -3.75520785      -3.11304927
C       -3.44700315      -3.32914449      -3.37542006
N       -3.92275044      -2.15952641      -2.86047890
C       -3.08929266      -1.42250317      -2.08493197
C       -4.38004624      -4.11606088      -4.21930911
C       -5.68091439      -3.68244675      -4.49418879
C       -6.51834742      -4.46159081      -5.29416271
C       -6.03990375      -5.65886255      -5.80370792
Br      -7.12916474      -6.74879945      -6.88801633
C       -4.74355625      -6.03179974      -5.49459620
N       -3.90958212      -5.29366031      -4.72090292
H       -0.28968656      -3.30904388      -2.10919205
H       -1.77275878      -4.68919680      -3.52917374
H       -3.52058567      -0.50212698      -1.70149427
H       -6.04479747      -2.74203198      -4.08906705
H       -7.52824799      -4.12416938      -5.50649507
H       -4.31710847      -6.95932113      -5.86602057
C       -1.78801263       1.78801263       1.78801263
C       -2.92026615       1.27224840       2.39990060
C       -3.70009848       2.11039203       3.19874375
C       -3.33265910       3.44895372       3.36995489
N       -2.21932402       3.95593747       2.76749426
C       -1.47887417       3.12057796       1.99727567
C       -4.12359755       4.38422901       4.20758967
C       -3.76463771       5.72652950       4.36638272
C       -4.54380348       6.56397458       5.16632288
C       -5.66624805       6.04400263       5.79222355
Br      -6.75168838       7.13076806       6.88352408
C       -5.96718128       4.70769369       5.59507722
N       -5.22791537       3.87309439       4.82313559
H       -3.20703347       0.23307187       2.26781715
H       -4.58977050       1.71757823       3.68378058
H       -0.60400066       3.57712448       1.54308178
H       -2.88246417       6.12273583       3.87069651
H       -4.26387630       7.60578384       5.28925230
H       -6.83389412       4.24749781       6.06105823
C        1.78801263      -1.78801263       1.78801263
C        2.93311027      -1.27842594       2.38087893
C        3.71249508      -2.11634413       3.18039504
C        3.33175940      -3.44851120       3.37129710
N        2.20578744      -3.94942978       2.78753854
C        1.46607960      -3.11442375       2.01622446
C        4.12158593      -4.38323261       4.21059769
C        3.74914200      -5.71937841       4.38902953
C        4.52788104      -6.55657786       5.18964204
C        5.66338154      -6.04250992       5.79658276
Br       6.74887459      -7.12920807       6.88789786
C        5.97729367      -4.71212189       5.58053663
N        5.23874095      -3.87790941       4.80749499
H        3.23020949      -0.24422174       2.23349126
H        4.61216601      -1.72833412       3.65062919
H        0.58083267      -3.56597626       1.57739798
H        2.85680634      -6.11098933       3.90810084
H        4.23748487      -7.59359851       5.32782906
H        6.85455934      -4.25669098       6.03119984
C       -0.00445707       0.01189536      -1.78238275
H       -0.66409135       0.67374010      -2.43557963
H        0.65740317      -0.63156657      -2.45157240
C       -0.90989263      -0.90692880      -0.91072765
C        0.90977584       0.90977584      -0.90977584
C       -0.00465871       1.77757030       0.00794375
H       -0.66225468       2.44313916      -0.64384735
H        0.64322798       2.43503045       0.67728295
C       -1.78241447       0.00034974      -0.00472694
H       -2.45427497      -0.65498947       0.64260836
H       -2.43311707       0.67328779      -0.65473579
C       -0.91132561       0.90220522       0.91563759
C       -0.01476271      -0.02253852       1.78660255
H       -0.67934791      -0.69751639       2.42135241
H        0.63392994       0.61504881       2.47327442
C        0.01484550      -1.77751727      -0.01636693
H        0.67870853      -2.42144646      -0.68295456
H       -0.62264859      -2.45592969       0.64226336
C        1.78714474       0.01002794       0.00389507
H        2.44202412       0.67113390       0.66197326
H        2.45385902      -0.65136977      -0.64189061
C        0.91606151      -0.90478549       0.90901405
