149
Properties=species:S:1:pos:R:3 pbc="F F F"
C        0.00000000       0.00000000       0.00000000
C        0.87805024       0.87805024      -0.87805024
C        1.91248199       0.32997100      -1.62079049
C        2.69593408       1.16938939      -2.41519890
C        2.42849136       2.54169173      -2.45233577
N        1.41035760       3.08023650      -1.72182548
C        0.66567848       2.24338532      -0.95756671
C        3.22217355       3.47907524      -3.28441422
C        2.92432757       4.83824787      -3.36316233
C        3.69463053       5.67200920      -4.17876733
C        4.76821702       5.15868790      -4.91407167
C        4.99711833       3.79096565      -4.76044552
N        4.26269100       2.95295323      -3.98389661
C        5.59283966       6.00524770      -5.79374354
C        5.93617963       7.31934846      -5.45883918
C        6.70694605       8.09891301      -6.32636646
C        7.14594931       7.56163428      -7.53504106
N        6.83393076       6.28496205      -7.88326303
C        6.07600611       5.55694064      -7.02342091
C        7.96184109       8.34019357      -8.49897399
C        8.43694310       7.78435523      -9.69125946
C        9.19565046       8.56264441     -10.56735524
C        9.46408252       9.88181022     -10.23547887
C        8.96626561      10.37180403      -9.04084322
N        8.22856297       9.63710718      -8.17174492
Br      10.47981642      10.97701157     -11.38375352
H        2.12021315      -0.73576275      -1.59450115
H        3.50867102       0.75140255      -3.00310076
H       -0.12981597       2.72652991      -0.39731104
H        2.09178052       5.25367228      -2.80199776
H        3.42730359       6.72441971      -4.23987606
H        5.82071432       3.29600366      -5.27059784
H        5.61843959       7.75706187      -4.51516939
H        6.96028839       9.11936784      -6.05219724
H        5.85001332       4.55728202      -7.38801821
H        8.21841351       6.74950237      -9.94096461
H        9.56337327       8.12970523     -11.49299362
H        9.14536922      11.39741780      -8.73080264
C       -0.87805024      -0.87805024      -0.87805024
C       -0.86747402      -0.73841072      -2.25735874
C       -1.68767187      -1.56384637      -3.02900413
C       -2.50225937      -2.51462371      -2.40563577
N       -2.51184620      -2.65189614      -1.04867724
C       -1.70715671      -1.83696605      -0.32250775
C       -3.38690238      -3.42350731      -3.17525332
C       -4.15976693      -4.40633780      -2.55963303
C       -4.96087882      -5.24795714      -3.33657110
C       -5.00166948      -5.11119335      -4.72811376
C       -4.20537665      -4.09191776      -5.25123510
N       -3.41015060      -3.26403187      -4.52535837
C       -5.82393738      -5.98887693      -5.57901658
C       -7.09133702      -6.43422648      -5.18880378
C       -7.83650054      -7.28013528      -6.01558970
C       -7.31727515      -7.67970451      -7.24564499
N       -6.09154587      -7.25641096      -7.65419901
C       -5.38883840      -6.44319291      -6.82433635
C       -8.05736277      -8.57963021      -8.16401567
C       -7.55214642      -8.94415828      -9.41625309
C       -8.28621741      -9.79945170     -10.23998099
C       -9.51065357     -10.27480235      -9.79591568
C       -9.95532568      -9.87598192      -8.54760526
N       -9.26317461      -9.04534627      -7.72889419
Br     -10.53993809     -11.43451882     -10.86612461
H       -0.23404172      -0.00186306      -2.74304676
H       -1.68703773      -1.46495714      -4.11117946
H       -1.75615509      -1.98977994       0.75191005
H       -4.13766123      -4.52949056      -1.48029877
H       -5.53691373      -6.02118046      -2.83350517
H       -4.18151143      -3.88649408      -6.31931032
H       -7.52510248      -6.12510998      -4.24045840
H       -8.81726158      -7.62018103      -5.69441087
H       -4.40987355      -6.17199859      -7.21344141
H       -6.59027880      -8.56620656      -9.75239512
H       -7.89228671     -10.08196806     -11.21181736
H      -10.90644212     -10.21781052      -8.14933702
C       -0.87805024       0.87805024       0.87805024
C       -0.36698173       2.01908414       1.47717762
C       -1.20529533       2.79935408       2.27587296
C       -2.53999363       2.42360032       2.45892491
N       -3.04235280       1.30124107       1.86882570
C       -2.20683183       0.56039332       1.09940536
C       -3.47781141       3.21853333       3.28931828
C       -4.82091045       2.87439055       3.43043676
C       -5.66389675       3.67126420       4.21024611
C       -5.17310010       4.80972853       4.85814797
C       -3.81460064       5.06519428       4.66873459
N       -2.97167222       4.31660738       3.91126125
C       -6.03540098       5.67969027       5.67673965
C       -7.05363932       5.17085664       6.48987131
C       -7.86331637       6.02835619       7.24055296
C       -7.65148879       7.40475757       7.18637828
N       -6.66444011       7.92694277       6.41077297
C       -5.90148455       7.06839717       5.68648594
C       -8.48029072       8.36536341       7.95535453
C       -8.23766592       9.74261554       7.93227633
C       -9.05175543      10.60443869       8.66945599
C      -10.09332702      10.07331514       9.41472944
C      -10.28013902       8.70224254       9.39653129
N       -9.50332310       7.84322420       8.69086777
Br     -11.22423918      11.19190700      10.42443534
H        0.66874375       2.31324823       1.33444706
H       -0.81673376       3.69684474       2.74959583
H       -2.65993145      -0.32163977       0.65573330
H       -5.22032651       1.99573456       2.93138949
H       -6.71258636       3.39321995       4.28579305
H       -3.32804022       5.91298935       5.14628625
H       -7.22984382       4.09989152       6.56093552
H       -8.65266797       5.61605107       7.86313444
H       -5.15356877       7.56750018       5.07424460
H       -7.41906786      10.14696540       7.34284722
H       -8.86236369      11.67365206       8.65005638
H      -11.08035560       8.23213383       9.96110022
C        0.87805024      -0.87805024       0.87805024
C        1.38584173      -2.07658901       0.40081275
C        2.18854610      -2.85433488       1.23764140
C        2.46908114      -2.41720598       2.53623174
N        1.96967018      -1.23774962       3.00499978
C        1.19178006      -0.50223442       2.17261603
C        3.32225044      -3.19779931       3.46561326
C        3.64555169      -2.73895468       4.74123140
C        4.46988989      -3.50779307       5.56772410
C        4.97053022      -4.73897292       5.13147346
C        4.58166702      -5.12001182       3.84685067
N        3.79021086      -4.39282043       3.01650956
C        5.85241447      -5.56908580       5.97033063
C        5.67918888      -5.68126046       7.35391793
C        6.54607404      -6.46559855       8.12055293
C        7.59035700      -7.15041349       7.50185416
N        7.77819864      -7.06601466       6.15794254
C        6.92499616      -6.28863394       5.44273756
C        8.54557470      -7.99376213       8.26167183
C        9.56622220      -8.71388691       7.63244867
C       10.44289515      -9.48788541       8.39486954
C       10.28327664      -9.52647979       9.77161517
C        9.25329583      -8.79242327      10.33319376
N        8.38734596      -8.03432084       9.61574827
Br      11.44093517     -10.55192100      10.84772534
H        1.17047191      -2.41648661      -0.60800698
H        2.59368632      -3.79500502       0.87448300
H        0.82136762       0.42592276       2.59858012
H        3.26882132      -1.78328825       5.09534099
H        4.72519013      -3.11657654       6.54983269
H        4.89750037      -6.06962438       3.42019108
H        4.86334802      -5.16868877       7.85863407
H        6.39949324      -6.53755625       9.19480399
H        7.15971558      -6.25449238       4.38110559
H        9.68206098      -8.67420172       6.55261779
H       11.23521489     -10.04604212       7.90481512
H        9.08214550      -8.78552174      11.40592242
