157
Properties=species:S:1:pos:R:3 pbc="F F F"
C        0.00000000       0.00000000       0.00000000
C        0.87805024       0.87805024      -0.87805024
C        1.91248199       0.32997100      -1.62079049
C        2.69593408       1.16938939      -2.41519890
C        2.42849136       2.54169173      -2.45233577
N        1.41035760       3.08023650      -1.72182548
C        0.66567848       2.24338532      -0.95756671
C        3.22217355       3.47907524      -3.28441422
C        2.92432757       4.83824787      -3.36316233
C        3.69463053       5.67200920      -4.17876733
C        4.76821702       5.15868790      -4.91407167
C        4.99711833       3.79096565      -4.76044552
N        4.26269100       2.95295323      -3.98389661
C        5.59283966       6.00524770      -5.79374354
C        5.93617963       7.31934846      -5.45883918
C        6.70694605       8.09891301      -6.32636646
C        7.14594931       7.56163428      -7.53504106
N        6.83393076       6.28496205      -7.88326303
C        6.07600611       5.55694064      -7.02342091
C        7.96184109       8.34019357      -8.49897399
C        8.43694310       7.78435523      -9.69125946
C        9.19565046       8.56264441     -10.56735524
C        9.46408252       9.88181022     -10.23547887
C        8.96626561      10.37180403      -9.04084322
N        8.22856297       9.63710718      -8.17174492
H        2.12021315      -0.73576275      -1.59450115
H        3.50867102       0.75140255      -3.00310076
H       -0.12981597       2.72652991      -0.39731104
H        2.09178052       5.25367228      -2.80199776
H        3.42730359       6.72441971      -4.23987606
H        5.82071432       3.29600366      -5.27059784
H        5.61843959       7.75706187      -4.51516939
H        6.96028839       9.11936784      -6.05219724
H        5.85001332       4.55728202      -7.38801821
H        8.21841351       6.74950237      -9.94096461
H        9.56337327       8.12970523     -11.49299362
H        9.14536922      11.39741780      -8.73080264
C       10.24041120      10.71887613     -11.11310887
C       10.89058648      11.41991883     -11.84812400
Br      11.94186491      12.55344559     -13.03658130
C       -0.87805024      -0.87805024      -0.87805024
C       -0.87750169      -0.72929582      -2.25644598
C       -1.69734446      -1.55504984      -3.02812807
C       -2.50154000      -2.51525723      -2.40572163
N       -2.50126237      -2.66149146      -1.04966575
C       -1.69715873      -1.84604657      -0.32342521
C       -3.38526415      -3.42489457      -3.17550429
C       -4.14757938      -4.41682729      -2.56133109
C       -4.94826579      -5.25860349      -3.33853778
C       -4.99914384      -5.11298369      -4.72884907
C       -4.21302949      -4.08505969      -5.25044032
N       -3.41847584      -3.25672015      -4.52434486
C       -5.82123724      -5.99047697      -5.58011669
C       -7.08308201      -6.44673950      -5.18454577
C       -7.82812359      -7.29210832      -6.01199361
C       -7.31442372      -7.68015884      -7.24804208
N       -6.09422392      -7.24610625      -7.66182568
C       -5.39140171      -6.43372739      -6.83123856
C       -8.05464011      -8.57890771      -8.16746084
C       -7.55532513      -8.93186556      -9.42536708
C       -8.28919288      -9.78656540     -10.24989182
C       -9.50752345     -10.27289732      -9.80095083
C       -9.94654778      -9.88522290      -8.54714218
N       -9.25446947      -9.05542374      -7.72752185
H       -0.25213829       0.01459111      -2.74140437
H       -1.70450748      -1.44905941      -4.10960745
H       -1.73805524      -2.00622788       0.75025814
H       -4.11753707      -4.54691133      -1.48300215
H       -5.51587884      -6.03889939      -2.83682113
H       -4.19756837      -3.87247851      -6.31726894
H       -7.51259291      -6.14672469      -4.23135327
H       -8.80448920      -7.64072525      -5.68663904
H       -4.41682908      -6.15352504      -7.22495943
H       -6.59819971      -8.54537092      -9.76530985
H       -7.89984474     -10.06009019     -11.22613720
H      -10.89274916     -10.23593265      -8.14490784
C      -10.29376136     -11.15906277     -10.61957208
C      -10.95223560     -11.90122633     -11.30516739
Br     -12.01693276     -13.10124204     -12.41371700
C       -0.87805024       0.87805024       0.87805024
C       -0.36456751       2.01405840       1.48461757
C       -1.20296316       2.79450768       2.28305154
C       -2.54015083       2.42396722       2.45840081
N       -3.04488120       1.30655339       1.86098498
C       -2.20923309       0.56540648       1.09199094
C       -3.47812587       3.21938619       3.28815095
C       -4.82338256       2.88068258       3.42167262
C       -5.66629084       3.67784125       4.20127497
C       -5.17331142       4.81115214       4.85651303
C       -3.81283524       5.06132812       4.67436614
N       -2.96986860       4.31235505       3.91731720
C       -6.03538043       5.68131027       5.67514020
C       -7.05955903       5.17342996       6.48137828
C       -7.86875456       6.03119382       7.23227714
C       -7.65049736       7.40685403       7.18527325
N       -6.65761725       7.92805778       6.41648082
C       -5.89526620       7.06934024       5.69176122
C       -8.47843638       8.36772620       7.95484607
C       -8.22951923       9.74395820       7.93908035
C       -9.04304670      10.60612622       8.67647719
C      -10.09035180      10.07636697       9.41465283
C      -10.28324306       8.70624788       9.38942192
N       -9.50711817       7.84691125       8.68338565
H        0.67310440       2.30417999       1.34787596
H       -0.81251357       3.68809481       2.76256596
H       -2.66428566      -0.31256701       0.64230633
H       -5.22448734       2.00609264       2.91687058
H       -6.71655067       3.40419984       4.27084885
H       -3.32462955       5.90476081       5.15792546
H       -7.24089671       4.10296295       6.54681120
H       -8.66275631       5.61966301       7.84943416
H       -5.14235583       7.56780785       5.08514988
H       -7.40645714      10.14725273       7.35517061
H       -8.84876329      11.67454963       8.66275921
H      -11.08810745       8.23722460       9.94825761
C      -10.95433549      10.93172707      10.18633364
C      -11.67792184      11.64809116      10.83261632
Br     -12.84789975      12.80639131      11.87760075
C        0.87805024      -0.87805024       0.87805024
C        1.37559925      -2.08256220       0.40508204
C        2.17866472      -2.86010118       1.24175648
C        2.46980853      -2.41679896       2.53591137
N        1.98047162      -1.23147163       3.00047633
C        1.20198953      -0.49628672       2.16835426
C        3.32388682      -3.19693086       3.46484534
C        3.65778673      -2.73231566       4.73563537
C        4.48247614      -3.50114300       5.56178792
C        4.97292661      -4.73800139       5.13004859
C        4.57388586      -5.12446687       3.85017678
N        3.78180006      -4.39750989       3.02023090
C        5.85486251      -5.56837825       5.96859014
C        5.68943810      -5.67106105       7.35386812
C        6.55621170      -6.45601275       8.12000107
C        7.59249402      -7.15096890       7.49916172
N        7.77260789      -7.07590883       6.15363913
C        6.91978921      -6.29768486       5.43889359
C        8.54719572      -7.99551173       8.25830121
C        9.55956392      -8.72569568       7.62729818
C       10.43616210      -9.50039382       8.38909419
C       10.28475045      -9.52962412       9.76699703
C        9.26271964      -8.78586373      10.33032948
N        8.39702292      -8.02685287       9.61353928
H        1.15198595      -2.42727130      -0.60030570
H        2.57583577      -3.80543038       0.88190819
H        0.83985360       0.43669969       2.59087108
H        3.28906036      -1.77221992       5.08617028
H        4.74616724      -3.10552424       6.53990788
H        4.88130981      -6.07857766       3.42742835
H        4.87984195      -5.15043565       7.86039326
H        6.41578058      -6.52052726       9.19554564
H        7.14820270      -6.27144829       4.37566256
H        9.66902345      -8.69329809       6.54655895
H       11.22205022     -10.06636911       7.89765279
H        9.09819083      -8.77138067      11.40401815
C       11.16978611     -10.31375549      10.58885460
C       11.91100348     -10.97046552      11.27716032
Br      13.10948927     -12.03231008      12.39009245
