173
Properties=species:S:1:pos:R:3 pbc="F F F"
C        0.00000000       0.00000000       0.00000000
C        0.87915080       0.87915080      -0.87915080
C        1.68906840       0.32120179      -1.85678042
C        2.47721224       1.16264189      -2.64062814
C        2.43561472       2.54224901      -2.42676138
N        1.64110943       3.09178455      -1.46585306
C        0.88633670       2.25347581      -0.71968363
C        3.24456230       3.47948149      -3.23348318
C        3.20913980       4.86087999      -3.02833525
C        3.98421548       5.69983734      -3.82971145
C        4.78183157       5.14548472      -4.82290247
C        4.77139490       3.76674221      -4.96577956
N        4.02873581       2.92789995      -4.20089657
C        5.57076755       5.97619638      -5.67459478
C        6.20869495       6.69736030      -6.39181920
C        6.98976935       7.64410165      -7.30692746
C        7.57370199       8.40894774      -8.02487393
C        8.24238015       9.33746741      -8.87836674
C        8.56874122      10.61152508      -8.43141782
C        9.20666417      11.49857487      -9.30037405
C        9.50818558      11.09687306     -10.60490330
N        9.19296622       9.84673651     -11.04752514
C        8.57371363       9.00555582     -10.18256682
C       10.17787263      11.99864605     -11.57375332
C       10.46529757      11.60244394     -12.88344277
C       11.09630438      12.48919105     -13.75617431
C       11.42871842      13.75638275     -13.30386358
C       11.11665129      14.08791428     -11.99708437
N       10.50375984      13.24546550     -11.12889854
H        1.71866696      -0.75191830      -2.02144605
H        3.11549360       0.74036816      -3.41159899
H        0.27147235       2.74257297       0.03001950
H        2.57797794       5.28426089      -2.25200299
H        3.95319370       6.77510507      -3.67387210
H        5.37345969       3.27421157      -5.72428493
H        8.33064376      10.92636726      -7.41883951
H        9.46230469      12.49792041      -8.95867840
H        8.34319665       8.02503241     -10.59066314
H       10.20157544      10.60810572     -13.23104427
H       11.31626850      12.17432838     -14.77139830
H       11.35304780      15.06594892     -11.58903329
C       12.08177622      14.70114395     -14.17250722
C       12.62871213      15.49238146     -14.89999627
Br      13.51306124      16.77174558     -16.07628454
C       -0.87915080      -0.87915080      -0.87915080
C       -0.67878280      -0.93820546      -2.25006236
C       -1.50554654      -1.75716729      -3.01776844
C       -2.51297046      -2.49709501      -2.39455965
N       -2.71168921      -2.43924888      -1.04780895
C       -1.89576271      -1.63747702      -0.32625641
C       -3.41217987      -3.38588494      -3.15946216
C       -4.42187435      -4.13098147      -2.54549923
C       -5.23278868      -4.96494299      -3.31603260
C       -5.02195367      -5.04122702      -4.68703807
C       -4.00570985      -4.26960106      -5.22860576
N       -3.20331610      -3.45040594      -4.50381030
C       -5.81918656      -5.90046307      -5.50190908
C       -6.48884688      -6.64653979      -6.16248777
C       -7.34098667      -7.62626234      -6.97354944
C       -8.00663096      -8.41850292      -7.58238978
C       -8.79521719      -9.38101892      -8.28197818
C      -10.03991104      -9.76903933      -7.80273375
C      -10.77490514     -10.72625490      -8.50445305
C      -10.25236138     -11.28152510      -9.67607547
N       -9.03286795     -10.90196010     -10.15239983
C       -8.34040060      -9.97043324      -9.45100242
C      -10.98458630     -12.30723598     -10.45844972
C      -10.45522147     -12.87428135     -11.62168146
C      -11.18436148     -13.83623786     -12.32107039
C      -12.42988643     -14.21414861     -11.84492970
C      -12.89751924     -13.61629056     -10.68784014
N      -12.20927566     -12.67959284      -9.98925538
H        0.10602493      -0.36239412      -2.73182551
H       -1.35963512      -1.81513198      -4.09269365
H       -2.09609608      -1.62897046       0.74104073
H       -4.57485740      -4.06761184      -1.47177257
H       -6.01525885      -5.54874928      -2.83816274
H       -3.79193402      -4.28632533      -6.29369685
H      -10.44505885      -9.34131446      -6.88947721
H      -11.74804400     -11.03692528      -8.13393423
H       -7.37427032      -9.70969298      -9.87492889
H       -9.47848652     -12.57359515     -11.98864374
H      -10.76681469     -14.27182223     -13.22335827
H      -13.86562824     -13.87352935     -10.26887243
C      -13.21486059     -15.20273365     -12.53783315
C      -13.87227645     -16.03067363     -13.11813978
Br     -14.93526230     -17.36938254     -14.05644653
C       -0.87915080       0.87915080       0.87915080
C       -1.74633818       1.80377687       0.31693557
C       -2.53447573       2.58763041       1.15837613
C       -2.43534593       2.42701015       2.54226904
N       -1.58296575       1.51966541       3.09611588
C       -0.83006135       0.77176684       2.25766796
C       -3.25234503       3.22628021       3.47890173
C       -3.16156817       3.07236310       4.86442377
C       -3.96789877       3.84481268       5.70105283
C       -4.85175347       4.75818930       5.14027599
C       -4.88423900       4.86134162       3.75833606
N       -4.11179288       4.12402672       2.92171274
C       -5.70641420       5.54905293       5.96609158
C       -6.42982572       6.18716124       6.68088749
C       -7.35739008       6.96669208       7.61671628
C       -8.08901264       7.54795059       8.37056044
C       -8.96219376       8.21217457       9.28384596
C       -8.59567888       8.40648684      10.60951840
C       -9.48319068       9.04444698      11.47797543
C      -10.72547710       9.47829212      11.00619273
N      -11.08877957       9.29293760       9.70551070
C      -10.20752930       8.67045983       8.88384714
C      -11.71111317      10.15472927      11.88442956
C      -12.96001290      10.57456757      11.41660381
C      -13.85176542      11.20597726      12.28392705
C      -13.47892312      11.40638584      13.60365578
C      -12.22956676      10.96707390      14.00500929
N      -11.34453572      10.35075502      13.18283314
H       -1.82197056       1.92583789      -0.75961375
H       -3.21980100       3.31506182       0.73259793
H       -0.16948954       0.06436624       2.75017002
H       -2.47047484       2.35149781       5.29226917
H       -3.90131729       3.72188406       6.77896953
H       -5.55423366       5.55697745       3.26074508
H       -7.63195719       8.06547846      10.97841488
H       -9.20455891       9.19722378      12.51712080
H      -10.55181154       8.54657575       7.86050491
H      -13.24551438      10.41385905      10.38135199
H      -14.81945815      11.52917358      11.91336345
H      -11.88469499      11.09699037      15.02634465
C      -14.36962094      12.05509211      14.53071434
C      -15.11558036      12.59838361      15.30712589
Br     -16.32173366      13.47684002      16.56251769
C        0.87915080      -0.87915080       0.87915080
C        1.04016677      -2.22774320       0.59914064
C        1.85528843      -2.99616830       1.42902554
C        2.48939638      -2.39601559       2.51921314
N        2.33126945      -1.07130376       2.79617382
C        1.53562736      -0.34849845       1.97537033
C        3.36942345      -3.16210280       3.42600071
C        4.00914577      -2.57098944       4.51821983
C        4.84036663      -3.34026868       5.33312896
C        5.01919221      -4.68720862       5.04381793
C        4.34870456      -5.20742233       3.94778979
N        3.53466474      -4.48334613       3.13952146
C        5.87933355      -5.49819439       5.84403077
C        6.62450548      -6.15410947       6.51925949
C        7.60101842      -6.95748982       7.38229022
C        8.38902240      -7.55877320       8.05972807
C        9.34499954      -8.24802350       8.86519126
C        9.62346870      -7.82845333      10.15976209
C       10.57760304      -8.51663848      10.91137158
C       11.23957727      -9.61510478      10.35527990
N       10.96778777     -10.03289872       9.08654138
C       10.03664341      -9.34624206       8.37895080
C       12.26738759     -10.37922360      11.10366080
C       12.94095879     -11.46816173      10.54206375
C       13.90002219     -12.15335054      11.28829700
C       14.16857498     -11.73754788      12.58284188
C       13.46851567     -10.65257526      13.08055901
N       12.53214597      -9.96931483      12.37666308
H        0.54654450      -2.69152266      -0.24987246
H        1.99246462      -4.05360994       1.22138619
H        1.44486163       0.70082033       2.23998451
H        3.86623013      -1.51553756       4.73247412
H        5.34235052      -2.87972172       6.18009863
H        4.44833693      -6.25315725       3.67046201
H        9.11268266      -6.97176509      10.59140279
H       10.80286670      -8.19230860      11.92372820
H        9.86417796      -9.72115160       7.37356264
H       12.72562693     -11.78809958       9.52699892
H       14.41867948     -12.99781823      10.84549749
H       13.63769721     -10.28294951      14.08738330
C       15.15029954     -12.41829997      13.38682788
C       15.97249385     -12.98842985      14.06016615
Br      17.30191252     -13.91028165      15.14889719
