186
Properties=species:S:1:pos:R:3 pbc="F F F"
C        1.78905483       1.78905483      -1.78905483
C        2.59897243       1.23110582      -2.76668444
C        3.38711626       2.07254591      -3.55053216
C        3.34551874       3.45215304      -3.33666541
N        2.55101345       4.00168857      -2.37575708
C        1.79624073       3.16337983      -1.62958765
C        4.15446633       4.38938552      -4.14338720
C        4.11904382       5.77078402      -3.93823928
C        4.89411951       6.60974136      -4.73961547
C        5.69173560       6.05538874      -5.73280649
C        5.68129893       4.67664624      -5.87568359
N        4.93863984       3.83780397      -5.11080060
C        6.48067158       6.88610041      -6.58449880
C        7.11859897       7.60726432      -7.30172322
C        7.89967337       8.55400567      -8.21683148
C        8.48360602       9.31885177      -8.93477795
C        9.15228417      10.24737144      -9.78827076
C        9.47864524      11.52142911      -9.34132184
C       10.11656820      12.40847889     -10.21027808
C       10.41808961      12.00677709     -11.51480733
N       10.10287024      10.75664054     -11.95742916
C        9.48361765       9.91545984     -11.09247085
C       11.08777666      12.90855007     -12.48365734
C       11.37520159      12.51234796     -13.79334679
C       12.00620840      13.39909507     -14.66607834
C       12.33862245      14.66628677     -14.21376760
C       12.02655532      14.99781831     -12.90698839
N       11.41366387      14.15536952     -12.03880257
Br      13.19293653      15.90220005     -15.35010577
H        2.62857098       0.15798572      -2.93135008
H        4.02539762       1.65027218      -4.32150302
H        1.18137637       3.65247699      -0.87988452
H        3.48788196       6.19416491      -3.16190701
H        4.86309772       7.68500910      -4.58377613
H        6.28336371       4.18411560      -6.63418895
H        9.24054778      11.83627128      -8.32874354
H       10.37220871      13.40782444      -9.86858243
H        9.25310067       8.93493643     -11.50056716
H       11.11147946      11.51800974     -14.14094829
H       12.22617253      13.08423241     -15.68130233
H       12.26295182      15.97585295     -12.49893732
C       -1.78905483      -1.78905483      -1.78905483
C       -2.19706831      -1.35751188      -3.04218250
C       -3.00040438      -2.19462723      -3.81516273
C       -3.37596891      -3.44343102      -3.31493726
N       -2.97670377      -3.86832981      -2.08342553
C       -2.19772870      -3.03730111      -1.35417840
C       -4.21979078      -4.37243046      -4.09501781
C       -4.59982360      -5.62396889      -3.60427463
C       -5.38654516      -6.46617831      -4.39075288
C       -5.78070627      -6.04475909      -5.65446547
C       -5.37125266      -4.78858676      -6.07378933
N       -4.60743268      -3.94950860      -5.33030313
C       -6.56775013      -6.88981718      -6.49370348
C       -7.21145429      -7.62729630      -7.18883592
C       -8.00899182      -8.60012830      -8.06139040
C       -8.61348135      -9.39015213      -8.73360225
C       -9.31328480     -10.35277770      -9.52186388
C      -10.05523960     -11.36300043      -8.92315616
C      -10.71176778     -12.29719107      -9.72636631
C      -10.61533121     -12.20638385     -11.11795896
N       -9.89117434     -11.21517238     -11.71059323
C       -9.26367423     -10.32129627     -10.90657784
C      -11.28483360     -13.17458640     -12.02056407
C      -11.17553784     -13.09327764     -13.41208086
C      -11.82469244     -14.02963971     -14.21704965
C      -12.57161731     -15.03070368     -13.61635583
C      -12.63978376     -15.05711488     -12.23446338
N      -12.01859961     -14.15985285     -11.42938350
Br     -13.46942753     -16.31954976     -14.65626506
H       -1.90269633      -0.38625887      -3.42895157
H       -3.32652092      -1.87107311      -4.79957879
H       -1.90712060      -3.42451844      -0.38209884
H       -4.28181870      -5.94564030      -2.61649488
H       -5.67831259      -7.44211562      -4.01145474
H       -5.64706504      -4.40317267      -7.05143055
H      -10.12709490     -11.43719110      -7.84127660
H      -11.29155888     -13.09204537      -9.26501132
H       -8.69870169      -9.55671092     -11.43319166
H      -10.58825671     -12.30640340     -13.87577738
H      -11.73522552     -13.95992394     -15.29655780
H      -13.20960884     -15.81814465     -11.70998859
C       -1.78905483       1.78905483       1.78905483
C       -1.99900861       3.12322991       1.47452417
C       -2.81228178       3.89214381       2.30576874
C       -3.39559528       3.30690601       3.43183590
N       -3.18934097       1.99641290       3.74270524
C       -2.39664485       1.27278052       2.91978284
C       -4.27138435       4.07390536       4.34194933
C       -4.86052130       3.49759531       5.46995050
C       -5.69034548       4.26643567       6.28669519
C       -5.91831637       5.59815446       5.96346000
C       -5.29640593       6.10441714       4.83280568
N       -4.48492146       5.38043558       4.02188737
C       -6.77873062       6.40736879       6.76517138
C       -7.52325519       7.06124482       7.44308651
C       -8.49786015       7.86134207       8.31130830
C       -9.28345884       8.45944279       8.99433411
C      -10.23578170       9.14437171       9.80777296
C      -10.46323463       8.75620175      11.12195981
C      -11.41526731       9.43848940      11.88156846
C      -12.12627298      10.49967104      11.31373000
N      -11.90468050      10.88665245      10.02560699
C      -10.97436949      10.20654940       9.31062945
C      -13.15431095      11.25556089      12.07011223
C      -13.87677649      12.30671516      11.49740470
C      -14.83380114      12.98570138      12.25187929
C      -15.05146141      12.60158631      13.56562909
C      -14.30452951      11.55323780      14.07359471
N      -13.36899206      10.87679348      13.36205041
Br     -16.33063885      13.48543742      14.62916608
H       -1.54483448       3.57539114       0.59768115
H       -2.98747035       4.93832066       2.07138182
H       -2.26639642       0.23508067       3.21226079
H       -4.67946420       2.45377557       5.71071412
H       -6.15303175       3.81719635       7.16165485
H       -5.43577831       7.13789055       4.52799940
H       -9.91426468       7.92836822      11.56292971
H      -11.60074385       9.13849067      12.90938105
H      -10.84297132      10.55574156       8.28989138
H      -13.70116948      12.60195175      10.46731627
H      -15.39059321      13.80075583      11.80035822
H      -14.43276451      11.20946476      15.09551282
C        1.78905483      -1.78905483       1.78905483
C        1.95615955      -3.13598015       1.50462299
C        2.77105140      -3.90446115       2.33468179
C        3.39883976      -3.30603251       3.42946492
N        3.23472478      -1.98296524       3.71076909
C        2.43944909      -1.26006474       2.88969439
C        4.27834065      -4.07222146       4.33667693
C        4.91176956      -3.48281870       5.43347886
C        5.74281942      -4.25203775       6.24861916
C        5.92776200      -5.59720943       5.95495940
C        5.26331706      -6.11581398       4.85449771
N        4.44959240      -5.39175813       4.04589388
C        6.78794282      -6.40797161       6.75535635
C        7.53304150      -7.06362618       7.43091884
C        8.50932961      -7.86658425       8.29459666
C        9.29704705      -8.46745645       8.97273224
C       10.25258718      -9.15614719       9.77919201
C       10.52465548      -8.74038943      11.07635128
C       11.47854963      -9.42782036      11.82895517
C       12.14669891     -10.52172206      11.27125305
N       11.88120720     -10.93577538       9.99995736
C       10.95014431     -10.24995195       9.29145209
C       13.17456423     -11.28479883      12.02062101
C       13.85429519     -12.36910864      11.45749251
C       14.81312716     -13.05350478      12.20474987
C       15.07529344     -12.64155136      13.50183203
C       14.36932776     -11.56106668      14.00096757
N       13.43303853     -10.87867274      13.29612469
Br      16.35895469     -13.53122977      14.55505789
H        1.46744533      -3.59841623       0.65204521
H        2.91295724      -4.96059951       2.12361607
H        2.34377103      -0.21208931       3.15787754
H        4.76410713      -2.42871623       5.65113052
H        6.23991485      -3.79279531       7.09917278
H        5.36789562      -7.16012495       4.57364768
H       10.00906113      -7.88723297      11.50926851
H       11.69882184      -9.10644378      12.84334995
H       10.78283288     -10.62173670       8.28403468
H       13.64394829     -12.68604609      10.44044311
H       15.33658852     -13.89436975      11.76074899
H       14.53336973     -11.19458325      15.00978910
C       -0.00445707       0.01189536      -1.78238275
H       -0.66409135       0.67374010      -2.43557963
H        0.65740317      -0.63156657      -2.45157240
C       -0.90989263      -0.90692880      -0.91072765
C        0.90977584       0.90977584      -0.90977584
C       -0.00465871       1.77757030       0.00794375
H       -0.66225468       2.44313916      -0.64384735
H        0.64322798       2.43503045       0.67728295
C       -1.78241447       0.00034974      -0.00472694
H       -2.45427497      -0.65498947       0.64260836
H       -2.43311707       0.67328779      -0.65473579
C       -0.91132561       0.90220522       0.91563759
C       -0.01476271      -0.02253852       1.78660255
H       -0.67934791      -0.69751639       2.42135241
H        0.63392994       0.61504881       2.47327442
C        0.01484550      -1.77751727      -0.01636693
H        0.67870853      -2.42144646      -0.68295456
H       -0.62264859      -2.45592969       0.64226336
C        1.78714474       0.01002794       0.00389507
H        2.44202412       0.67113390       0.66197326
H        2.45385902      -0.65136977      -0.64189061
C        0.91606151      -0.90478549       0.90901405
