194
Properties=species:S:1:pos:R:3 pbc="F F F"
C        1.79218950       1.79218950      -1.79218950
C        3.12844655       1.99323454      -1.44663467
C        3.93825331       2.79159518      -2.25378076
C        3.40163444       3.39754235      -3.38991973
C        2.05629380       3.21198691      -3.72127644
C        1.25276860       2.38427363      -2.93455316
O        1.64773100       3.82252646      -4.88399544
C        0.33428095       4.19295638      -5.03434660
C       -0.39233758       4.88392207      -4.07005494
C       -1.71648736       5.27920494      -4.33694658
C       -2.32863877       5.03198184      -5.58281019
C       -1.54607124       4.35839153      -6.54225961
C       -0.23738507       3.94006707      -6.27293353
C       -3.71987514       5.47982314      -5.89167891
C       -4.35683747       6.51098123      -5.17866375
C       -5.66268064       6.92479563      -5.48646107
C       -6.37386899       6.33912727      -6.53502493
C       -5.74577499       5.35341937      -7.28718584
C       -4.46051077       4.90753174      -6.94358986
O       -7.63085771       6.85405257      -6.74598857
C       -8.51267243       6.25645725      -7.61491297
C       -8.78482941       4.88658526      -7.63414730
C       -9.70764796       4.36841006      -8.54525435
C      -10.40655454       5.22610393      -9.39489039
C      -10.18371928       6.59956897      -9.32322414
C       -9.23956291       7.12002323      -8.43865426
Br     -11.18018049       7.76896335     -10.42498223
H        3.54941046       1.52657621      -0.55978795
H        4.98447694       2.94036969      -2.00118243
H        4.03463437       4.01380432      -4.02398819
H        0.21944321       2.19261393      -3.20640549
H        0.05299091       5.13507317      -3.11201568
H       -2.25251117       5.78421073      -3.54140309
H       -1.92649581       4.16013729      -7.53918014
H        0.33394490       3.42828238      -7.04297237
H       -3.84732819       7.03383429      -4.37354610
H       -6.11941642       7.72495805      -4.90777840
H       -6.22289353       4.90200785      -8.15161377
H       -4.05382877       4.09147736      -7.53568961
H       -8.27945880       4.21039206      -6.94840770
H       -9.88845711       3.29719608      -8.58570836
H      -11.13210960       4.81697145     -10.09368992
H       -9.06716667       8.19091944      -8.37925680
C       -1.79218950      -1.79218950      -1.79218950
C       -3.17484838      -1.60886745      -1.78459993
C       -3.98213348      -2.40719717      -2.59429860
C       -3.40298363      -3.39463685      -3.39147605
C       -2.01891870      -3.59060345      -3.38003500
C       -1.20537562      -2.76885508      -2.59736468
O       -1.55584303      -4.56273136      -4.23567851
C       -0.38912266      -5.22608741      -3.94637385
C       -0.09341065      -5.76835621      -2.69987258
C        1.10105545      -6.48865549      -2.51206412
C        2.00359353      -6.71925229      -3.57049450
C        1.64959371      -6.18031830      -4.82385531
C        0.47535352      -5.44093438      -5.01003466
C        3.25577783      -7.51428295      -3.39312180
C        3.42825672      -8.42522191      -2.33584232
C        4.60908130      -9.17011647      -2.18754090
C        5.65448922      -9.05016240      -3.10461002
C        5.48631168      -8.19433658      -4.18680532
C        4.32597448      -7.41396346      -4.30262186
O        6.74194272      -9.85386496      -2.85726118
C        7.91341588      -9.71006866      -3.56204502
C        8.54169492      -8.48420827      -3.79338980
C        9.73918300      -8.43499971      -4.51019974
C       10.34330697      -9.61602020      -4.94172655
C        9.74946979     -10.84147252      -4.64707109
C        8.53685626     -10.89549819      -3.96047265
Br      10.60225169     -12.44557058      -5.17044620
H       -3.63058873      -0.84360816      -1.16157774
H       -5.05861139      -2.26037562      -2.60704205
H       -4.03125905      -4.01218723      -4.02898059
H       -0.12546600      -2.87783691      -2.61515971
H       -0.77997389      -5.65373594      -1.86636992
H        1.30286520      -6.86161065      -1.51435721
H        2.26904042      -6.34155570      -5.70030635
H        0.23683898      -5.04736449      -5.99467414
H        2.64026358      -8.59375573      -1.60656005
H        4.70232022      -9.86231272      -1.35332752
H        6.23704180      -8.10214777      -4.96562212
H        4.28687487      -6.72090026      -5.13931281
H        8.10499546      -7.55837659      -3.42595982
H       10.20570150      -7.47654004      -4.72360878
H       11.28161185      -9.57099145      -5.48917216
H        8.07437179     -11.85032413      -3.72705723
C       -1.79218950       1.79218950       1.79218950
C       -3.14004748       1.47277989       1.95548840
C       -3.94610454       2.27147523       2.76604948
C       -3.40320496       3.39345926       3.39243230
C       -2.05724160       3.72341252       3.20890303
C       -1.23972762       2.90516247       2.42670529
O       -1.62163506       4.82518253       3.90743531
C       -0.56978165       5.56509883       3.42670344
C       -0.46095863       5.99314421       2.10753660
C        0.62212563       6.80332959       1.71846020
C        1.59430120       7.23780017       2.64265428
C        1.42814929       6.80802246       3.97470672
C        0.36701140       5.98079230       4.36183463
C        2.72725220       8.12877134       2.25010778
C        2.69230532       8.93005026       1.09506257
C        3.76310725       9.76756430       0.74411902
C        4.90122400       9.85395185       1.54755534
C        4.93681561       9.11035236       2.72129348
C        3.88696443       8.23620172       3.04137354
O        5.86336470      10.72941985       1.10312827
C        7.10770382      10.78131639       1.68508522
C        7.88728759       9.65695370       1.96623704
C        9.14810784       9.80630012       2.54782417
C        9.65803479      11.08184301       2.79063156
C        8.90627028      12.20223428       2.44310982
C        7.63296016      12.05948422       1.89259051
Br       9.62452452      13.93099250       2.70729711
H       -3.56813538       0.60198865       1.46565059
H       -4.99318407       2.02080585       2.91203914
H       -4.02938034       4.01214709       4.03089944
H       -0.18204597       3.12212266       2.31429400
H       -1.21002022       5.71963375       1.37042578
H        0.68147617       7.08207334       0.67250549
H        2.10995723       7.12570979       4.75706907
H        0.27234059       5.67657568       5.40096456
H        1.82203419       8.93798818       0.44409820
H        3.69608865      10.36927644      -0.15986777
H        5.76672871       9.17968077       3.41777603
H        4.00786409       7.63928107       3.94192122
H        7.52112901       8.65746939       1.74300058
H        9.73643000       8.92833464       2.80254268
H       10.64526672      11.19089660       3.23292189
H        7.04704199      12.93204868       1.61800287
C        1.79218950      -1.79218950       1.79218950
C        3.09249987      -2.09054806       1.38526782
C        3.90278671      -2.88909440       2.19174813
C        3.40117176      -3.39820764       3.38971712
C        2.09010910      -3.11554241       3.78390564
C        1.28891992      -2.28697382       2.99570164
O        1.71743981      -3.63530050       5.00151259
C        0.39655992      -3.91874233       5.24628168
C       -0.42294180      -4.61826888       4.36631236
C       -1.74900116      -4.91936684       4.72929849
C       -2.27196210      -4.56756011       5.99055525
C       -1.39794760      -3.88891837       6.86360912
C       -0.08616237      -3.56407879       6.49769910
C       -3.66533800      -4.91475439       6.40221053
C       -4.39959926      -5.94465629       5.78775048
C       -5.70603272      -6.26302759       6.19158120
C       -6.32050030      -5.57903072       7.24175278
C       -5.59530021      -4.59172874       7.89840169
C       -4.30970306      -4.24216888       7.45814501
O       -7.58957258      -6.00644734       7.55230867
C       -8.38402799      -5.31050292       8.43222286
C       -8.57793413      -3.92802877       8.38580851
C       -9.41519165      -3.30647967       9.31472842
C      -10.10945207      -4.07288903      10.25100282
C       -9.96799520      -5.45895519      10.24811383
C       -9.10803299      -6.08255676       9.34459081
Br     -10.96131694      -6.50447577      11.47060626
H        3.48578127      -1.69957867       0.45041469
H        4.92240433      -3.11309003       1.89053470
H        4.03516599      -4.01446522       4.02279567
H        0.28567899      -2.01992288       3.31286075
H       -0.04951158      -4.94814452       3.40144682
H       -2.35824349      -5.43538788       3.99595826
H       -1.70733936      -3.61342703       7.86673395
H        0.55714413      -3.04480092       7.20325460
H       -3.96830544      -6.54061348       4.98774415
H       -6.23989094      -7.06584029       5.68737067
H       -5.99478974      -4.06558676       8.75993106
H       -3.82405901      -3.41982019       7.97757702
H       -8.07701330      -3.32199813       7.63435613
H       -9.53341781      -2.22588356       9.30198158
H      -10.76867400      -3.58346209      10.96376368
H       -8.99929076      -7.16339441       9.33890591
C       -0.00445707       0.01189536      -1.78238275
H       -0.66409135       0.67374010      -2.43557963
H        0.65740317      -0.63156657      -2.45157240
C       -0.90989263      -0.90692880      -0.91072765
C        0.90977584       0.90977584      -0.90977584
C       -0.00465871       1.77757030       0.00794375
H       -0.66225468       2.44313916      -0.64384735
H        0.64322798       2.43503045       0.67728295
C       -1.78241447       0.00034974      -0.00472694
H       -2.45427497      -0.65498947       0.64260836
H       -2.43311707       0.67328779      -0.65473579
C       -0.91132561       0.90220522       0.91563759
C       -0.01476271      -0.02253852       1.78660255
H       -0.67934791      -0.69751639       2.42135241
H        0.63392994       0.61504881       2.47327442
C        0.01484550      -1.77751727      -0.01636693
H        0.67870853      -2.42144646      -0.68295456
H       -0.62264859      -2.45592969       0.64226336
C        1.78714474       0.01002794       0.00389507
H        2.44202412       0.67113390       0.66197326
H        2.45385902      -0.65136977      -0.64189061
C        0.91606151      -0.90478549       0.90901405
