173
Properties=species:S:1:pos:R:3 pbc="F F F"
C        0.00000000       0.00000000       0.00000000
C        0.88228548       0.88228548      -0.88228548
C        2.21854253       1.08333052      -0.53673065
C        3.02834928       1.88169115      -1.34387674
C        2.49173041       2.48763833      -2.48001571
C        1.14638978       2.30208288      -2.81137242
C        0.34286457       1.47436960      -2.02464913
O        0.73782698       2.91262243      -3.97409141
C       -0.57562308       3.28305236      -4.12444258
C       -1.30224161       3.97401805      -3.16015092
C       -2.62639138       4.36930092      -3.42704256
C       -3.23854279       4.12207781      -4.67290616
C       -2.45597526       3.44848751      -5.63235558
C       -1.14728910       3.03016305      -5.36302950
C       -4.62977916       4.56991911      -4.98177489
C       -5.26674150       5.60107721      -4.26875973
C       -6.57258466       6.01489161      -4.57655705
C       -7.28377302       5.42922324      -5.62512090
C       -6.65567901       4.44351535      -6.37728181
C       -5.37041479       3.99762772      -6.03368584
O       -8.54076174       5.94414855      -5.83608454
C       -9.42257646       5.34655322      -6.70500895
C       -9.69473343       3.97668123      -6.72424328
C      -10.61755198       3.45850604      -7.63535032
C      -11.31645856       4.31619991      -8.48498637
C      -11.09362330       5.68966494      -8.41332011
C      -10.14946693       6.21011920      -7.52875023
Br     -12.09008452       6.85905933      -9.51507821
H        2.63950644       0.61667219       0.35011607
H        4.07457292       2.03046566      -1.09127841
H        3.12473034       3.10390030      -3.11408417
H       -0.69046082       1.28270991      -2.29650146
H       -0.85691311       4.22516914      -2.20211165
H       -3.16241519       4.87430671      -2.63149907
H       -2.83639983       3.25023327      -6.62927612
H       -0.57595912       2.51837836      -6.13306835
H       -4.75723222       6.12393026      -3.46364207
H       -7.02932045       6.81505402      -3.99787437
H       -7.13279756       3.99210383      -7.24170975
H       -4.96373280       3.18157333      -6.62578559
H       -9.18936282       3.30048804      -6.03850367
H      -10.79836114       2.38729206      -7.67580433
H      -12.04201362       3.90706743      -9.18378590
H       -9.97707070       7.28101542      -7.46935278
C       -0.88228548      -0.88228548      -0.88228548
C       -2.27008002      -0.77379334      -0.79473033
C       -3.07794876      -1.57202493      -1.60394348
C       -2.49288784      -2.48533965      -2.48115696
C       -1.10203148      -2.60733270      -2.55048090
C       -0.29055599      -1.78403960      -1.76728772
O       -0.63663280      -3.50861741      -3.47929062
C        0.57605509      -4.12245543      -3.28547151
C        0.96515090      -4.71070409      -2.08637418
C        2.20297126      -5.37469465      -1.99822870
C        3.05815174      -5.50267072      -3.11192220
C        2.61072920      -4.92051689      -4.31508013
C        1.39219810      -4.23649463      -4.40160692
C        4.35676835      -6.23757272      -3.04111048
C        4.63155999      -7.19047395      -2.04418147
C        5.85491153      -7.87771708      -1.99605845
C        6.84233954      -7.65563102      -2.95727964
C        6.57330249      -6.75619817      -3.98222246
C        5.37031904      -6.03412628      -3.99709153
O        7.98085630      -8.41154315      -2.80878450
C        9.10414937      -8.16971302      -3.56342207
C        9.65612258      -6.90184584      -3.76046782
C       10.80951775      -6.75234426      -4.53347786
C       11.44886602      -7.87593721      -5.05765652
C       10.93460610      -9.14476902      -4.79919883
C        9.76475543      -9.29835002      -4.05580791
Br      11.83849822     -10.67232739      -5.45022384
H       -2.73010373      -0.06661427      -0.10934455
H       -4.15963048      -1.48252705      -1.55415945
H       -3.12220124      -3.10245077      -3.11806280
H        0.79099417      -1.83406712      -1.84567760
H        0.31921488      -4.67542130      -1.21416127
H        2.47652056      -5.78648402      -1.03342711
H        3.18980069      -5.00369935      -5.22921089
H        1.08169641      -3.80677293      -5.35041106
H        3.89326894      -7.43770896      -1.28590010
H        6.02764604      -8.60538629      -1.20586770
H        7.27565799      -6.58457891      -4.79209510
H        5.25139996      -5.30257131      -4.79245478
H        9.19326821      -6.02053961      -3.32235749
H       11.21470289      -5.76071141      -4.71872674
H       12.35305338      -7.75306211      -5.64883097
H        9.36447886     -10.28715880      -3.85061755
C       -0.88228548       0.88228548       0.88228548
C       -0.53546889       2.21793259       1.08520221
C       -1.34260224       3.02774911       1.88356582
C       -2.48001117       2.49172192       2.48765136
C       -2.81265700       1.14695820       2.30022988
C       -2.02590676       0.34347860       1.47249795
O       -3.97650862       0.73901141       2.90902080
C       -4.12873264      -0.57468158       3.27782079
C       -3.16601948      -1.30314116       3.96904903
C       -3.43482340      -2.62743174       4.36256043
C       -4.68109098      -3.23792044       4.11327064
C       -5.63891904      -2.45353664       3.43948543
C       -5.36767222      -1.14468673       3.02291796
C       -4.99200506      -4.62930925       4.55921903
C       -4.28084712      -5.26821132       5.59045963
C       -4.59055695      -6.57417038       6.00247743
C       -5.63925837      -7.28353919       5.41485194
C       -6.38962247      -6.65351240       4.42900808
C       -6.04410121      -5.36813644       3.98493399
O       -5.85219287      -8.54086411       5.92814259
C       -6.72143153      -9.42104580       5.32859998
C       -6.73944341      -9.69165763       3.95840530
C       -7.65099867     -10.61288445       3.43819015
C       -8.50236577     -11.31179807       4.29416001
C       -8.43198088     -11.09057027       5.66795113
C       -7.54694156     -10.14797864       6.19043958
Br      -9.53614764     -12.08710410       6.83500948
H        0.35236440       2.63842760       0.61999935
H       -1.08900639       4.07352478       2.03378582
H       -3.11406099       3.12474165       3.10391216
H       -2.29869451      -0.68932971       1.27938576
H       -2.20776578      -0.85915910       4.22176101
H       -2.64043922      -3.16490217       4.86785353
H       -6.63604068      -2.83263039       3.23969926
H       -6.13650498      -0.57193104       2.51091364
H       -3.47574595      -4.76018046       6.11477463
H       -4.01327374      -7.03243969       6.80277390
H       -7.25407736      -7.12916598       3.97610464
H       -6.63483945      -4.95988825       3.16867493
H       -6.05238984      -9.18629911       3.28353816
H       -7.69046112     -10.79245708       2.36673122
H       -9.20151581     -12.03611928       3.88344317
H       -7.48854469      -9.97683965       7.26159245
C        0.88228548      -0.88228548       0.88228548
C        0.76057807      -2.26977128       0.80825434
C        1.56956548      -3.07789130       1.60646039
C        2.48098696      -2.49278615       2.48561134
C        2.58485799      -1.10150641       2.57348068
C        1.80137379      -0.29096097       1.74954856
O        3.54483695      -0.63747899       3.44222489
C        3.39312463       0.59309425       4.03184148
C        2.21728036       1.02340413       4.63805113
C        2.17292986       2.27777327       5.27479550
C        3.30853080       3.10941287       5.35732326
C        4.48724496       2.62085162       4.75847448
C        4.52995002       1.38534218       4.10129561
C        3.28454782       4.42575912       6.06312615
C        2.31667075       4.74542541       7.03185010
C        2.31253419       5.98492948       7.69125929
C        3.29058756       6.94431894       7.42430250
C        4.28784332       6.63097003       6.50824486
C        4.25839514       5.41180499       5.81430863
O        3.18580014       8.10294400       8.15661522
C        3.96001904       9.20249938       7.87146605
C        4.13994919       9.72064807       6.58688996
C        4.93537352      10.85196718       6.39289803
C        5.50009712      11.50437217       7.48900276
C        5.25967082      11.02537266       8.77506359
C        4.49356961       9.87700829       8.97284119
Br       5.96664202      11.94843594      10.26584693
H        0.04854835      -2.72968166       0.12783254
H        1.49303721      -4.15987603       1.54340375
H        3.11760382      -3.12255525       3.10255573
H        1.90556801       0.78932372       1.77250626
H        1.32997007       0.39737381       4.63777142
H        1.22449962       2.58310104       5.70199200
H        5.41604356       3.18016720       4.80723319
H        5.46112946       1.04304610       3.65740422
H        1.54772086       4.03087523       7.31349449
H        1.54369728       6.19262648       8.43253715
H        5.10930267       7.31012449       6.30183783
H        5.03353897       5.25768529       5.06777245
H        3.67093259       9.24816148       5.72685778
H        5.10661392      11.22998440       5.38810573
H        6.10871831      12.39146977       7.33159116
H        4.30244440       9.50429822       9.97515131
