194
Properties=species:S:1:pos:R:3 pbc="F F F"
C        1.79169792       1.79169792      -1.79169792
C        2.63225775       2.73735475      -1.20374821
C        3.44708310       3.53834359      -2.00850665
C        3.39803730       3.40517481      -3.39866052
C        2.56748772       2.44372927      -3.97996096
C        1.75763984       1.63790031      -3.17668847
O        4.21384230       4.11084681      -4.25188030
C        4.36482480       5.46876673      -4.07841459
C        5.58904785       6.00358588      -4.47009159
C        5.80906255       7.37630677      -4.38483951
C        4.79889475       8.22293059      -3.91675062
C        3.54863021       7.71645314      -3.52608378
C        3.35244480       6.32088865      -3.62639967
C        2.47386720       8.59161091      -3.00218375
C        2.74170624       9.70259185      -2.18281021
C        1.70584650      10.45271272      -1.61037439
C        0.37906525      10.07419913      -1.80211616
C        0.09207567       8.96482993      -2.58927588
C        1.12496050       8.28890355      -3.24878180
O       -1.22705849       8.57506289      -2.68077663
C       -1.50192860       7.22107606      -2.65956421
C       -0.78534352       6.29103368      -1.89486576
C       -1.08436315       4.93013899      -1.98396694
C       -2.13279207       4.50755394      -2.79838448
C       -2.89337930       5.43439832      -3.51144289
C       -2.57761713       6.79370174      -3.43997301
Br      -2.52232088       2.66327224      -2.93692125
H        2.67098572       2.84863870      -0.12330785
H        4.12137363       4.25265624      -1.54446495
H        2.55494374       2.31798198      -5.05969440
H        1.11529089       0.89213791      -3.63795762
H        6.37165636       5.34947069      -4.84605171
H        6.76577734       7.79167734      -4.69088897
H        4.99880715       9.29159105      -3.87715383
H        2.39554831       5.89079615      -3.34201763
H        3.76668594       9.98542769      -1.95288911
H        1.93980836      11.31031107      -0.98422054
H       -0.42330839      10.62651390      -1.32108970
H        0.86930214       7.47653996      -3.92530596
H        0.02687848       6.60846185      -1.24535425
H       -0.49361483       4.21273435      -1.42034882
H       -3.72466845       5.10966185      -4.13145015
H       -3.15971299       7.51688864      -4.00450709
C       -1.79169792      -1.79169792      -1.79169792
C       -2.97951289      -2.31438576      -1.27946207
C       -3.79254356      -3.11340424      -2.08798554
C       -3.39997610      -3.40486146      -3.39703508
C       -2.21835719      -2.86332528      -3.90949547
C       -1.40822115      -2.05913115      -3.10487632
O       -4.17543917      -4.12905430      -4.27207593
C       -4.74955444      -5.30890808      -3.85354360
C       -5.95772585      -5.64924661      -4.45575286
C       -6.58084032      -6.85324183      -4.13612668
C       -5.99081534      -7.72890957      -3.21885104
C       -4.76643067      -7.42101519      -2.60372126
C       -4.15550720      -6.19486064      -2.94936527
C       -4.13696305      -8.32131808      -1.60938073
C       -4.89116335      -9.05748981      -0.67845513
C       -4.27227729      -9.81867467       0.32201834
C       -2.88480716      -9.81631320       0.44573982
C       -2.12039385      -9.07651284      -0.44927480
C       -2.73879944      -8.41037613      -1.51347028
O       -0.75898760      -9.03281339      -0.23698004
C       -0.11387239      -7.82743383      -0.43740545
C       -0.67967408      -6.58047991      -0.14040192
C        0.01438133      -5.40612512      -0.43799899
C        1.29365161      -5.48223511      -0.98456286
C        1.88988861      -6.72094026      -1.22141026
C        1.18462267      -7.89523315      -0.94544714
Br       2.22356347      -3.89244695      -1.40898913
H       -3.28745189      -2.09497194      -0.26050845
H       -4.73082630      -3.49369754      -1.69397097
H       -1.93073533      -3.06326804      -4.93861675
H       -0.49112908      -1.64168030      -3.51257705
H       -6.41240556      -4.97638121      -5.17839199
H       -7.52426822      -7.11679537      -4.60728006
H       -6.49662085      -8.66766079      -3.00327040
H       -3.20282299      -5.92395089      -2.50158821
H       -5.97837235      -9.02659874      -0.70003166
H       -4.87838317     -10.38276134       1.02680455
H       -2.40540034     -10.36824219       1.24934732
H       -2.11449770      -7.90785598      -2.24879439
H       -1.67195300      -6.50685039       0.29810882
H       -0.45160576      -4.44347904      -0.24438353
H        2.89549925      -6.78340936      -1.62853344
H        1.64107748      -8.86160917      -1.14115105
C       -1.79169792       1.79169792       1.79169792
C       -1.27542405       2.32483200       2.97310466
C       -2.07773027       3.13993437       3.77626871
C       -3.40008658       3.39696730       3.40481875
C       -3.90506444       2.87478825       2.21132526
C       -3.10237551       2.06560068       1.40425243
O       -4.22964427       4.23882392       4.10810121
C       -4.31247260       4.12167059       5.47786293
C       -4.59363367       5.29255252       6.17653913
C       -4.75299733       5.25741335       7.55979815
C       -4.64249695       4.04597430       8.25010471
C       -4.37242547       2.84542297       7.57331867
C       -4.21896584       2.91043670       6.17033058
C       -4.22469789       1.55555996       8.28740400
C       -3.61470048       1.46149876       9.55090906
C       -3.38825995       0.22028035      10.16039332
C       -3.71885426      -0.95738437       9.49391064
C       -4.30131048      -0.88860420       8.23347521
C       -4.62730281       0.35497161       7.68037143
O       -4.53163232      -2.07734142       7.57449011
C       -4.28255282      -2.11986332       6.21602217
C       -3.23600943      -1.42777695       5.59232344
C       -3.09600166      -1.47005931       4.20380043
C       -3.97172280      -2.24547067       3.44689423
C       -4.97517351      -2.98994854       4.06723693
C       -5.12906178      -2.92767011       5.45466595
Br      -3.79651254      -2.28401461       1.56537467
H       -0.24915366       2.12434650       3.26943213
H       -1.66193374       3.57657706       4.67998403
H       -4.92332949       3.10281577       1.90647485
H       -3.50376264       1.66448294       0.47714084
H       -4.69245268       6.23349368       5.64123240
H       -4.97215724       6.17286750       8.10331891
H       -4.78758998       4.05167201       9.32829005
H       -4.01775332       2.00167081       5.60893796
H       -3.27845165       2.35629268      10.07025842
H       -2.91894501       0.17520892      11.14018604
H       -3.50133283      -1.92164494       9.94460732
H       -5.15802641       0.38174771       6.73137394
H       -2.53764206      -0.82916406       6.17221657
H       -2.30768294      -0.89422334       3.72600874
H       -5.64679011      -3.61171709       3.48137053
H       -5.91798688      -3.49594205       5.93963791
C        1.79169792      -1.79169792       1.79169792
C        1.20219646      -2.66410400       2.70706025
C        2.00724623      -3.47884510       3.50784201
C        3.39851225      -3.39817551       3.40518487
C        3.98190670      -2.53557884       2.47369240
C        3.17854799      -1.72567972       1.66800091
O        4.25399925      -4.21087266       4.11169749
C        4.05564962      -4.39413935       5.46221715
C        4.46198746      -5.62102769       5.97971017
C        4.35296754      -5.87178051       7.34546078
C        3.84613906      -4.88968954       8.20274736
C        3.43967184      -3.63735032       7.71414496
C        3.56472720      -3.40962027       6.32538565
C        2.87509728      -2.59245399       8.60011059
C        2.03871836      -2.90069023       9.68769971
C        1.42904579      -1.89303886      10.44684896
C        1.60045775      -0.55484962      10.10007317
C        2.40419807      -0.22817335       9.01381006
C        3.09930104      -1.23261672       8.33072809
O        2.47580830       1.10053190       8.65350462
C        2.47686047       1.40351175       7.30536294
C        1.74695631       0.69107846       6.34467806
C        1.85790551       1.02063090       4.99246817
C        2.65852760       2.09443476       4.60905352
C        3.33594897       2.84984781       5.56636074
C        3.24301085       2.50395947       6.91700624
Br       2.82699741       2.52571730       2.77659249
H        0.12074323      -2.72757482       2.79461423
H        1.54287468      -4.17758696       4.19803318
H        5.06350768      -2.49798891       2.37112353
H        3.64147670      -1.05825696       0.94565277
H        4.86791737      -6.38164599       5.31761540
H        4.67052785      -6.83052434       7.74729146
H        3.78863356      -5.11296380       9.26595467
H        3.26912622      -2.44993380       5.90930207
H        1.82473721      -3.93597619       9.94428934
H        0.79033835      -2.15804098      11.28596064
H        1.09120001       0.22550212      10.65859733
H        3.78695927      -0.94584102       7.53834777
H        1.10834668      -0.14097617       6.63137173
H        1.32191965       0.43364604       4.25119473
H        3.94481512       3.70050417       5.27213260
H        3.77997558       3.08219223       7.66389938
C       -0.00445707       0.01189536      -1.78238275
H       -0.66409135       0.67374010      -2.43557963
H        0.65740317      -0.63156657      -2.45157240
C       -0.90989263      -0.90692880      -0.91072765
C        0.90977584       0.90977584      -0.90977584
C       -0.00465871       1.77757030       0.00794375
H       -0.66225468       2.44313916      -0.64384735
H        0.64322798       2.43503045       0.67728295
C       -1.78241447       0.00034974      -0.00472694
H       -2.45427497      -0.65498947       0.64260836
H       -2.43311707       0.67328779      -0.65473579
C       -0.91132561       0.90220522       0.91563759
C       -0.01476271      -0.02253852       1.78660255
H       -0.67934791      -0.69751639       2.42135241
H        0.63392994       0.61504881       2.47327442
C        0.01484550      -1.77751727      -0.01636693
H        0.67870853      -2.42144646      -0.68295456
H       -0.62264859      -2.45592969       0.64226336
C        1.78714474       0.01002794       0.00389507
H        2.44202412       0.67113390       0.66197326
H        2.45385902      -0.65136977      -0.64189061
C        0.91606151      -0.90478549       0.90901405
