162
Properties=species:S:1:pos:R:3 pbc="F F F"
C        1.82963196       1.82963196      -1.82963196
C        3.29262356       1.79944012      -1.34936976
H        3.24223883       1.96466422      -0.26258904
C        4.11447229       3.01430528      -1.91659580
H        3.49225967       3.90664676      -1.74580880
C        4.36461897       2.96379231      -3.42548809
C        5.53412092       2.42422230      -3.98322535
C        5.72384776       2.39106046      -5.36930754
C        4.74426200       2.89305053      -6.22707598
C        3.57400708       3.43318092      -5.69438232
C        3.39003786       3.47125493      -4.30469376
Cl       2.30665413       4.06137375      -6.68611958
Cl       5.04423825       2.81291213      -7.92633809
C        5.37845547       3.23803483      -1.06305504
C        3.95502196       0.43732713      -1.55250360
C        4.57952976      -0.20168387      -0.47024023
C        5.17047460      -1.45955059      -0.62530602
C        5.15814702      -2.09836343      -1.86667559
C        4.54271522      -1.47782524      -2.95539163
C        3.93792633      -0.22538420      -2.79137583
Cl       4.49639548      -2.18958832      -4.52840746
Cl       5.91512482      -3.64562805      -1.98701390
H        1.39840740       2.83178190      -1.73258323
H        1.68566681       1.47731266      -2.85428859
H        6.32196473       2.00931280      -3.35796476
H        6.64184210       1.96864958      -5.77147576
H        2.47554578       3.91048279      -3.91037854
H        5.13749230       3.25299359       0.00522415
H        6.16837652       2.50129749      -1.22817390
H        4.59539461       0.26160865       0.51444626
H        5.63537893      -1.94094646       0.23216406
H        3.45274696       0.23010063      -3.65473191
C        5.95522890       4.53314661      -1.31528091
C        6.43827665       5.61780273      -1.52652008
Br       7.21932400       7.37159993      -1.86807596
C       -1.82963196      -1.82963196      -1.82963196
C       -0.98339170      -2.86683296      -2.59120878
H       -0.14931258      -2.29504054      -3.02513897
C       -1.76320292      -3.46168306      -3.82048738
H       -2.19424008      -2.59877511      -4.35170005
C       -2.94800889      -4.35638364      -3.44950685
C       -2.84216180      -5.75218973      -3.34721704
C       -3.94804626      -6.53623818      -2.99993132
C       -5.18272579      -5.93894872      -2.74271401
C       -5.31028310      -4.55342502      -2.83786221
C       -4.20183907      -3.77123566      -3.19291184
Cl      -6.79815183      -3.73462624      -2.52136940
Cl      -6.50140823      -6.96878945      -2.31329078
C       -0.77059281      -4.09101518      -4.81793736
C       -0.36018820      -3.91477308      -1.66989142
C        1.02229228      -4.15135988      -1.71901852
C        1.61934938      -5.08709619      -0.86848322
C        0.84550767      -5.81185113       0.03988428
C       -0.53163071      -5.59119154       0.10254064
C       -1.12272101      -4.64132886      -0.73986809
Cl      -1.56438986      -6.45511335       1.18428860
Cl       1.64839633      -6.95722291       1.05231591
H       -2.31627084      -1.12942855      -2.51707313
H       -2.58473235      -2.26348656      -1.16904915
H       -1.89901393      -6.26441395      -3.52581441
H       -3.83524005      -7.61577533      -2.93095206
H       -4.32773104      -2.69325391      -3.27542216
H        0.05887082      -3.40945669      -5.03467586
H       -0.35484047      -5.04841697      -4.49459047
H        1.65711562      -3.59425946      -2.40541315
H        2.69497120      -5.24195050      -0.91528911
H       -2.19776440      -4.47941733      -0.66039777
C       -1.38999982      -4.31522529      -6.09843132
C       -1.90875319      -4.50300125      -7.17084501
Br      -2.74753352      -4.80661911      -8.90484725
C       -1.82963196       1.82963196       1.82963196
C       -3.13620860       2.20128966       1.10393519
H       -2.82397035       2.54070380       0.10481794
C       -3.83376731       3.44546587       1.76614019
H       -3.04200216       4.19815302       1.90456006
C       -4.40878609       3.18493025       3.16018303
C       -5.74750900       2.82099930       3.37306027
C       -6.23492037       2.58573170       4.66356370
C       -5.39092447       2.70500497       5.76845908
C       -4.05678846       3.06489570       5.57988617
C       -3.57326138       3.30676010       4.28596508
Cl      -2.94311815       3.21959476       6.89143455
Cl      -6.06013585       2.39321422       7.33013839
C       -4.82383568       4.08381227       0.77189740
C       -4.05638337       1.00043496       0.88803437
C       -4.53505581       0.71246924      -0.39943893
C       -5.35784794      -0.39522976      -0.62638814
C       -5.72675244      -1.23025486       0.42996160
C       -5.26144689      -0.95920698       1.71804171
C       -4.42438337       0.14186959       1.93766501
Cl      -5.68219761      -1.93010771       3.08312471
Cl      -6.75252068      -2.57389362       0.07788360
H       -1.21784547       2.71602041       2.02890664
H       -1.97479879       1.27952058       2.76294869
H       -6.44222817       2.70294549       2.54406863
H       -7.27785192       2.30742472       4.79669080
H       -2.53242405       3.60058893       4.16339413
H       -4.35906719       4.23449702      -0.20830248
H       -5.74799830       3.51777940       0.63207021
H       -4.25593390       1.33443908      -1.24781597
H       -5.70400473      -0.60593703      -1.63579929
H       -4.06459544       0.32227653       2.95070753
C       -5.20385546       5.40766414       1.19213682
C       -5.52212203       6.51639009       1.54408734
Br      -6.03673215       8.30910617       2.11316156
C        1.82963196      -1.82963196       1.82963196
C        1.38369881      -1.75582423       3.30191040
H        1.27207993      -0.68208168       3.51533047
C        2.51202880      -2.25779328       4.27555129
H        3.43735237      -1.75749984       3.94986303
C        2.79986590      -3.75866040       4.19537308
C        2.19689478      -4.69379840       5.05087539
C        2.48188848      -6.05959605       4.94273123
C        3.37316394      -6.51901464       3.97220993
C        3.98322242      -5.60725086       3.11109704
C        3.70079173      -4.23852703       3.22666779
Cl       5.08603032      -6.09432576       1.87379138
Cl       3.67165186      -8.21859365       3.89324295
C        2.25077219      -1.72901154       5.69976162
C        0.01437280      -2.39155944       3.53892047
C       -0.99239792      -1.65663319       4.18385084
C       -2.26106515      -2.20765364       4.38964155
C       -2.54507360      -3.50687038       3.96466240
C       -1.55594631      -4.25393848       3.32228944
C       -0.29191141      -3.69200664       3.10382273
Cl      -1.81725642      -5.87273076       2.77974028
Cl      -4.12968687      -4.12578787       4.26040967
H        2.83919396      -1.42580627       1.69777230
H        1.78758261      -2.83258835       1.39709711
H        1.48603319      -4.38764703       5.81556207
H        2.00053769      -6.75971739       5.62171236
H        4.19934720      -3.54334114       2.55371877
H        2.04017300      -0.65426715       5.69082159
H        1.43736395      -2.23551648       6.22496747
H       -0.80940538      -0.63636133       4.51560105
H       -3.02917265      -1.61272044       4.87872061
H        0.45728375      -4.29253568       2.58776007
C        3.42374444      -1.85429282       6.52561916
C        4.40610871      -1.95921589       7.21727486
Br       5.99450865      -2.12886762       8.33562361
C       -0.00445707       0.01189536      -1.78238275
H       -0.66409135       0.67374010      -2.43557963
H        0.65740317      -0.63156657      -2.45157240
C       -0.90989263      -0.90692880      -0.91072765
C        0.90977584       0.90977584      -0.90977584
C       -0.00465871       1.77757030       0.00794375
H       -0.66225468       2.44313916      -0.64384735
H        0.64322798       2.43503045       0.67728295
C       -1.78241447       0.00034974      -0.00472694
H       -2.45427497      -0.65498947       0.64260836
H       -2.43311707       0.67328779      -0.65473579
C       -0.91132561       0.90220522       0.91563759
C       -0.01476271      -0.02253852       1.78660255
H       -0.67934791      -0.69751639       2.42135241
H        0.63392994       0.61504881       2.47327442
C        0.01484550      -1.77751727      -0.01636693
H        0.67870853      -2.42144646      -0.68295456
H       -0.62264859      -2.45592969       0.64226336
C        1.78714474       0.01002794       0.00389507
H        2.44202412       0.67113390       0.66197326
H        2.45385902      -0.65136977      -0.64189061
C        0.91606151      -0.90478549       0.90901405
