170
Properties=species:S:1:pos:R:3 pbc="F F F"
C        1.82811684       1.82811684      -1.82811684
C        3.14991253       2.17587042      -1.13181560
H        2.90982526       2.59570536      -0.14519751
C        4.05260759       0.96016184      -0.92607020
C        4.52044035       0.19831647      -2.01029635
C        5.36440875      -0.89604604      -1.80297718
C        5.75694441      -1.24815498      -0.50987435
C        5.30200796      -0.50020446       0.57966918
C        4.45699042       0.59715841       0.37040792
Cl       5.74774665      -0.87061755       2.20774480
Cl       6.80647384      -2.60848739      -0.33061296
C        3.85655410       3.18726811      -1.88205804
C        4.43897243       4.02088134      -2.50041500
C        5.11693857       5.14683874      -3.28443693
C        5.60272083       6.05385452      -3.90805007
C        6.17045962       7.16665664      -4.70084747
H        7.03696911       6.75917359      -5.24028468
C        6.65531284       8.29422065      -3.79492173
C        5.77866734       8.99200280      -2.94837297
C        6.24266061      10.04124456      -2.14915662
C        7.58976459      10.40962417      -2.17959448
C        8.47659762       9.72100904      -3.01130378
C        8.01028574       8.67002460      -3.81100919
Cl      10.15607395      10.11710435      -3.10571226
Cl       8.08939652      11.71944227      -1.17016247
C        5.14263514       7.64081969      -5.73661227
Br       5.96419452       8.80563765      -7.07316807
H        1.23034503       2.72494707      -2.02380980
H        1.96082869       1.29073390      -2.77235239
H        4.24439674       0.45692514      -3.03132820
H        5.71787933      -1.46764369      -2.65828132
H        4.11405204       1.17299618       1.22840653
H        4.72363860       8.72715191      -2.90087281
H        5.54498623      10.57052159      -1.50377905
H        8.71166248       8.14766155      -4.45974585
H        4.72821123       6.80221801      -6.30614155
H        4.31284274       8.20534135      -5.29991594
C       -1.82811684      -1.82811684      -1.82811684
C       -3.07053071      -2.31526316      -1.07180469
H       -2.73297284      -2.78176523      -0.13599005
C       -4.03532555      -1.18371589      -0.71979819
C       -4.62935094      -0.38662531      -1.71307692
C       -5.52748795       0.62825540      -1.37210734
C       -5.84911728       0.86426583      -0.03381233
C       -5.26847337       0.07972565       0.96661340
C       -4.36923093      -0.93793630       0.62342632
Cl      -5.62030347       0.30778441       2.64313475
Cl      -6.97159113       2.13100406       0.31198766
C       -3.75994817      -3.32228756      -1.84364451
C       -4.32816960      -4.15229607      -2.47980310
C       -4.98381894      -5.26902354      -3.29537177
C       -5.45134424      -6.16481667      -3.94846450
C       -5.99880137      -7.25997894      -4.77918341
H       -6.92695252      -6.88044424      -5.22903061
C       -6.34123412      -8.47729936      -3.92592173
C       -5.36164155      -9.16551572      -3.19188583
C       -5.69617839     -10.29627382      -2.44060958
C       -7.01440361     -10.75724476      -2.40733487
C       -8.00246104     -10.07987099      -3.12657841
C       -7.66576804      -8.94718001      -3.87837147
Cl      -9.65419056     -10.58793698      -3.13676302
Cl      -7.35197146     -12.16391155      -1.46311826
C       -5.01837100      -7.58917846      -5.91251763
Br      -5.85386651      -8.71797042      -7.27116331
H       -1.18734909      -2.66480593      -2.12694689
H       -2.06362888      -1.23977700      -2.72050910
H       -4.41042824      -0.55608181      -2.76614002
H       -5.97861972       1.22891286      -2.15881011
H       -3.92810496      -1.54374703       1.41321030
H       -4.32595780      -8.82961488      -3.19609065
H       -4.92034117     -10.81617086      -1.88277484
H       -8.44506867      -8.43420446      -4.43979675
H       -4.70266924      -6.68692908      -6.44697247
H       -4.12362920      -8.12076686      -5.57370396
C       -1.82811684       1.82811684       1.82811684
C       -1.32534697       1.85520392       3.27704768
H       -1.21974264       0.81526716       3.61571833
C        0.03032660       2.54483739       3.42432884
C        0.21682728       3.88848812       3.05739233
C        1.45857681       4.50809674       3.22181996
C        2.53533948       3.79752888       3.75647439
C        2.36669033       2.46075140       4.12807324
C        1.12121822       1.84119302       3.96376610
Cl       3.64929108       1.51791318       4.80076221
Cl       4.03813619       4.63019215       3.93654345
C       -2.29649583       2.50057673       4.12880768
C       -3.09693435       3.03249490       4.83083952
C       -4.18559607       3.65368772       5.70893045
C       -5.07740577       4.11632253       6.37089711
C       -6.19487585       4.69116713       7.15192075
H       -5.88017832       5.69891930       7.45732976
C       -6.46478742       3.87045963       8.40920816
C       -6.85292627       2.52245988       8.34365696
C       -7.12287588       1.80017632       9.51000959
C       -7.00727168       2.41053634      10.76117523
C       -6.61546713       3.74918904      10.84425427
C       -6.34511914       4.47120035       9.67500003
Cl      -6.45064506       4.57480934      12.35343616
Cl      -7.36318352       1.45808525      12.15773249
C       -7.43418099       4.82807956       6.25780653
Br      -8.79647646       5.95024890       7.09627488
H       -2.82965100       1.38973050       1.75972039
H       -1.85214819       2.81544112       1.35632568
H       -0.60731500       4.47332758       2.65200750
H        1.57747868       5.55068312       2.93531253
H        1.00366957       0.80062441       4.26168685
H       -6.94990269       2.01822247       7.38353816
H       -7.42588001       0.75805821       9.43534866
H       -6.04818646       5.51573828       9.75514514
H       -7.19604587       5.32771536       5.31280956
H       -7.91546503       3.87157875       6.03105625
C        1.82811684      -1.82811684       1.82811684
C        1.28932972      -1.90608756       3.26218128
H        1.14783016      -0.87844269       3.62445527
C       -0.05109489      -2.63380485       3.35612967
C       -0.19280726      -3.97169007       2.95017036
C       -1.42166146      -4.62696534       3.06603601
C       -2.53003307      -3.95845734       3.59023951
C       -2.40609906      -2.62801985       4.00021353
C       -1.17352654      -1.97270271       3.88456474
Cl      -3.72979960      -1.73628725       4.66289665
Cl      -4.01456563      -4.83373280       3.70943224
C        2.25497987      -2.54854490       4.12235547
C        3.05088612      -3.07805997       4.83132268
C        4.13266174      -3.69403866       5.72151384
C        5.01908373      -4.15092764       6.39461404
C        6.13091469      -4.71730389       7.18974515
H        5.83507316      -5.74044749       7.46090673
C        6.34693438      -3.92325183       8.47426899
C        6.70109905      -2.56450776       8.45343629
C        6.92206706      -1.86642512       9.64456961
C        6.79055778      -2.51218028      10.87624519
C        6.43203609      -3.86213753      10.91473682
C        6.21073706      -4.55988211       9.72070036
Cl       6.25039291      -4.73104130      12.39745634
Cl       7.08549839      -1.58792951      12.30557337
C        7.39585448      -4.79894664       6.32526597
Br       8.76524615      -5.90752486       7.17022923
H        2.81921826      -1.36260839       1.79727526
H        1.89012242      -2.80177644       1.33201612
H        0.65650593      -4.52441047       2.55173367
H       -1.50578208      -5.66437081       2.74992824
H       -1.09099723      -0.93764791       4.21199101
H        6.80933369      -2.03292154       7.50940809
H        7.19941784      -0.81529586       9.60457317
H        5.93937687      -5.61341823       9.76627478
H        7.19517153      -5.27952873       5.36187053
H        7.85750387      -3.82482347       6.13577269
C       -0.00445707       0.01189536      -1.78238275
H       -0.66409135       0.67374010      -2.43557963
H        0.65740317      -0.63156657      -2.45157240
C       -0.90989263      -0.90692880      -0.91072765
C        0.90977584       0.90977584      -0.90977584
C       -0.00465871       1.77757030       0.00794375
H       -0.66225468       2.44313916      -0.64384735
H        0.64322798       2.43503045       0.67728295
C       -1.78241447       0.00034974      -0.00472694
H       -2.45427497      -0.65498947       0.64260836
H       -2.43311707       0.67328779      -0.65473579
C       -0.91132561       0.90220522       0.91563759
C       -0.01476271      -0.02253852       1.78660255
H       -0.67934791      -0.69751639       2.42135241
H        0.63392994       0.61504881       2.47327442
C        0.01484550      -1.77751727      -0.01636693
H        0.67870853      -2.42144646      -0.68295456
H       -0.62264859      -2.45592969       0.64226336
C        1.78714474       0.01002794       0.00389507
H        2.44202412       0.67113390       0.66197326
H        2.45385902      -0.65136977      -0.64189061
C        0.91606151      -0.90478549       0.90901405
