90
Properties=species:S:1:pos:R:3 pbc="F F F"
C        6.07426527       3.83788049      -2.50682227
O        5.19774734       3.02391719      -1.73669324
C        3.92773779       2.85188248      -2.21474320
C        3.11053136       2.04616027      -1.41621831
C        1.79189647       1.79189647      -1.79189647
C        1.27229637       2.33455582      -2.96313778
C        2.08967830       3.13639961      -3.75576156
C        3.41270669       3.39901206      -3.39062243
H        7.03810560       3.87294334      -1.98996794
H        5.69767897       4.86349949      -2.57994436
H        6.24344476       3.40628827      -3.49885230
H        3.51433900       1.62095896      -0.50042615
H        0.24487634       2.13547324      -3.25424505
H        4.01833057       4.02857126      -4.03443217
C        1.56308022       3.70344423      -4.97015642
C        1.12205434       4.17834410      -5.98721211
Br       0.40895278       4.94621703      -7.63170515
C       -2.56739012      -3.74428622      -6.10729169
O       -1.79198352      -2.93847823      -5.22789601
C       -2.24214845      -2.80953371      -3.94268131
C       -1.44311601      -2.00459579      -3.12519814
C       -1.79189647      -1.79189647      -1.79189647
C       -2.93635326      -2.37594538      -1.25769132
C       -3.72938266      -3.17716240      -2.07529442
C       -3.39112293      -3.39823865      -3.41297961
H       -2.07521472      -3.74121322      -7.08458894
H       -3.57239215      -3.32989003      -6.23884064
H       -2.60902308      -4.78132334      -5.75823892
H       -0.54824476      -1.54706583      -3.54041352
H       -3.20655855      -2.20916224      -0.21887385
H       -4.03428191      -4.02880345      -4.01824864
C       -4.91609448      -3.78698505      -1.53360134
C       -5.90996563      -4.29771153      -1.07993340
Br      -7.51697122      -5.12351304      -0.34639069
C       -6.21279360       3.26599561       2.94017883
O       -5.33140984       2.46920051       2.15774741
C       -3.99390046       2.57733282       2.42313019
C       -3.17592832       1.77461161       1.62237001
C       -1.79189647       1.79189647       1.79189647
C       -1.20704570       2.60554618       2.75739808
C       -2.02538590       3.40342156       3.55303201
C       -3.41359082       3.39546771       3.39328265
H       -7.23403378       3.06370826       2.60327483
H       -6.01756806       4.33302452       2.79053025
H       -6.15185082       2.99689229       3.99984222
H       -3.63066381       1.13791809       0.86714221
H       -0.12873961       2.61778386       2.88807116
H       -4.01773138       4.03114844       4.03245419
C       -1.43157976       4.24949770       4.55560342
C       -0.93426711       4.95808647       5.39525697
Br      -0.13015463       6.10381458       6.75290575
C        2.52724289      -3.80566230       6.08606285
O        1.75308840      -2.99805006       5.20721930
C        2.22289728      -2.83901755       3.93244864
C        1.42407809      -2.03375966       3.11507219
C        1.79189647      -1.79189647       1.79189647
C        2.95535126      -2.34684083       1.26779787
C        3.74810226      -3.14848391       2.08525330
C        3.39087242      -3.39861765       3.41285112
H        2.01841134      -3.82806737       7.05453817
H        3.52246374      -3.37645938       6.24219970
H        2.59292933      -4.83558916       5.72006684
H        0.51437978      -1.59894392       3.52240042
H        3.24037152      -2.15736192       0.23686120
H        4.03446117      -4.02852550       4.01834733
C        4.95437721      -3.72833954       1.55396412
C        5.96463249      -4.21396863       1.10900944
Br       7.59812982      -4.99918980       0.38955534
C       -0.00445707       0.01189536      -1.78238275
H       -0.66409135       0.67374010      -2.43557963
H        0.65740317      -0.63156657      -2.45157240
C       -0.90989263      -0.90692880      -0.91072765
C        0.90977584       0.90977584      -0.90977584
C       -0.00465871       1.77757030       0.00794375
H       -0.66225468       2.44313916      -0.64384735
H        0.64322798       2.43503045       0.67728295
C       -1.78241447       0.00034974      -0.00472694
H       -2.45427497      -0.65498947       0.64260836
H       -2.43311707       0.67328779      -0.65473579
C       -0.91132561       0.90220522       0.91563759
C       -0.01476271      -0.02253852       1.78660255
H       -0.67934791      -0.69751639       2.42135241
H        0.63392994       0.61504881       2.47327442
C        0.01484550      -1.77751727      -0.01636693
H        0.67870853      -2.42144646      -0.68295456
H       -0.62264859      -2.45592969       0.64226336
C        1.78714474       0.01002794       0.00389507
H        2.44202412       0.67113390       0.66197326
H        2.45385902      -0.65136977      -0.64189061
C        0.91606151      -0.90478549       0.90901405
