165
Properties=species:S:1:pos:R:3 pbc="F F F"
C        0.00000000       0.00000000       0.00000000
C        0.88140336       0.88140336      -0.88140336
C        2.15940235       0.45675493      -1.22704882
C        2.96691527       1.27062996      -2.02901345
C        2.51316115       2.51527150      -2.50682144
C        1.21376660       2.91285789      -2.14304964
C        0.40386397       2.10730109      -1.33414027
C        3.38185864       3.37727891      -3.33937035
C        3.42995607       4.76576577      -3.14361726
C        4.27944071       5.56942888      -3.90176834
C        5.11476969       4.99631275      -4.86066149
C        5.10760881       3.61286021      -5.10325809
C        4.21353800       2.83182799      -4.34099451
C        6.02640600       3.00069399      -6.09576120
C        6.37233209       3.66636059      -7.28187619
C        7.27798540       3.11106625      -8.18600012
C        7.84875841       1.86484264      -7.92972194
C        7.51932777       1.13873746      -6.77543472
C        6.61114649       1.73430756      -5.87394222
C        8.10014765      -0.19986454      -6.51743040
C        8.29757791      -1.12277479      -7.56301506
C        8.84525107      -2.38920746      -7.32850829
C        9.19611699      -2.75974368      -6.03545166
C        9.00947529      -1.87482815      -4.97881670
C        8.47124397      -0.60535892      -5.22173092
Br       9.92889961      -4.47141684      -5.71259062
H        2.54262209      -0.49772234      -0.87592445
H        3.97177759       0.92552613      -2.26434314
H        0.81038379       3.86024777      -2.49478980
H       -0.59377662       2.44685370      -1.06796479
H        2.81901254       5.23775659      -2.37699111
H        4.30561445       6.64257264      -3.73204118
H        5.79383947       5.64984176      -5.40382124
H        4.15438846       1.76208725      -4.53681613
H        5.93601144       4.63344045      -7.52143593
H        7.54278523       3.65289080      -9.09058180
H        8.56703261       1.46965984      -8.64527024
H        6.35475252       1.19352965      -4.96497802
H        8.01178181      -0.86852324      -8.58202975
H        8.98622586      -3.07372711      -8.16072882
H        9.28089974      -2.15605445      -3.96487076
H        8.35629031       0.07303095      -4.37818979
C       -0.88140336      -0.88140336      -0.88140336
C       -2.20205499      -1.12187086      -0.51928025
C       -3.00458226      -1.93612970      -1.32584672
C       -2.50910320      -2.51682803      -2.50932286
C       -1.17060287      -2.24948790      -2.84958336
C       -0.35985052      -1.44267388      -2.04278093
C       -3.36060997      -3.39176786      -3.34613008
C       -2.85262761      -4.56726256      -3.91944892
C       -3.66786392      -5.40986727      -4.67290674
C       -5.01661631      -5.10269981      -4.85242783
C       -5.58009604      -3.93814278      -4.30548829
C       -4.72054876      -3.09074695      -3.57506479
C       -7.02459345      -3.63431165      -4.46395609
C       -7.71790425      -3.96380405      -5.63886057
C       -9.08681537      -3.72557166      -5.76266473
C       -9.79283230      -3.13579293      -4.71469777
C       -9.14864807      -2.75766260      -3.52718929
C       -7.76636912      -3.02525660      -3.42777054
C       -9.89095675      -2.10143997      -2.42531679
C      -10.89747471      -1.15187976      -2.68846371
C      -11.60345029      -0.52701204      -1.65408958
C      -11.30504903      -0.83499576      -0.33178018
C      -10.31314630      -1.76406941      -0.03624814
C       -9.61809450      -2.39369024      -1.07583123
Br     -12.25024270       0.01165376       1.06851556
H       -2.61780512      -0.69052919       0.38751010
H       -4.02706946      -2.12799785      -1.00657954
H       -0.74163924      -2.66430831      -3.75947382
H        0.67169881      -1.26011459      -2.33262609
H       -1.81449792      -4.85404294      -3.76521938
H       -3.25678522      -6.31836925      -5.10507379
H       -5.63117625      -5.80493559      -5.41139063
H       -5.11865975      -2.15900110      -3.17563099
H       -7.19694243      -4.41208207      -6.48186333
H       -9.60548206      -4.00413818      -6.67663758
H      -10.86334336      -2.98275360      -4.83586573
H       -7.25161256      -2.75339368      -2.50825395
H      -11.13735074      -0.87462951      -3.71330808
H      -12.37601045       0.19820588      -1.89542301
H      -10.07328994      -2.01090060       0.99447448
H       -8.86181492      -3.13160696      -0.81408917
C       -0.88140336       0.88140336       0.88140336
C       -0.38218132       1.38274556       2.07827922
C       -1.19547497       2.18420376       2.88687994
C       -2.51465024       2.50669099       2.51391287
C       -2.98716881       1.98768745       1.29481787
C       -2.18167033       1.17839225       0.48524275
C       -3.37327148       3.34012264       3.38511378
C       -4.72735825       3.02995594       3.58202491
C       -5.52270701       3.79284969       4.43508123
C       -4.97310527       4.87307227       5.12556641
C       -3.62491474       5.23315226       4.96566012
C       -2.85548997       4.45996883       4.07090170
C       -3.03253752       6.35804460       5.73227907
C       -3.77553786       7.50937316       6.03565785
C       -3.23228473       8.54043123       6.80233581
C       -1.92246803       8.44890561       7.27194936
C       -1.12113078       7.33596064       6.97640854
C       -1.70479388       6.30377234       6.21083005
C        0.28133091       7.25170538       7.44733905
C        1.11413619       8.38754573       7.46440864
C        2.43991352       8.31716607       7.90729936
C        2.96096267       7.10049518       8.33229247
C        2.16782463       5.95802479       8.32326368
C        0.83905580       6.03737700       7.88929476
Br       4.75276091       6.99880472       8.92402957
H        0.63105988       1.15396075       2.39792333
H       -0.78835900       2.54323243       3.83005543
H       -3.99519205       2.21577877       0.95445055
H       -2.57971693       0.78994500      -0.44862006
H       -5.17549177       2.17054737       3.08772110
H       -6.56846398       3.53380005       4.57796424
H       -5.61390627       5.41958462       5.81401158
H       -1.81845710       4.74145973       3.89337501
H       -4.79526677       7.62137299       5.67424807
H       -3.83271703       9.41560921       7.03793159
H       -1.53631383       9.26120940       7.88443946
H       -1.10425192       5.42495787       5.98405040
H        0.74014837       9.34875883       7.11667786
H        3.05172823       9.21533612       7.90961968
H        2.56683099       5.00281319       8.65373386
H        0.23665828       5.13099100       7.91317833
C        0.88140336      -0.88140336       0.88140336
C        0.37823339      -2.07249660       1.39247612
C        1.18669047      -2.87401307       2.20585514
C        2.51062925      -2.50802323       2.51660161
C        2.99050521      -1.29970477       1.97946415
C        2.18427211      -0.48905363       1.17197959
C        3.35178657      -3.35364433       3.39307701
C        4.18376717      -2.78581408       4.36975785
C        4.94342975      -3.58660000       5.22060817
C        4.87118489      -4.97628120       5.12427785
C        4.05874965      -5.60110847       4.16386899
C        3.32713613      -4.76173308       3.29749129
C        3.95270065      -7.08006399       4.09009655
C        5.05368157      -7.90778545       4.35910185
C        4.93591553      -9.29768452       4.34145171
C        3.71207825      -9.89323418       4.03801057
C        2.58344528      -9.11829549       3.73175919
C        2.73190224      -7.71526019       3.77223383
C        1.29052745      -9.74967753       3.37750853
C        1.24020079     -10.91286223       2.58475517
C        0.02366055     -11.51575512       2.24513623
C       -1.16986411     -10.95575730       2.68593179
C       -1.15669966      -9.80428256       3.46588095
C        0.06414556      -9.21223536       3.81123504
Br      -2.81537007     -11.76177219       2.22367126
H       -0.63909457      -2.38615472       1.17376405
H        0.76016746      -3.78876261       2.61271678
H        4.00996043      -0.97608214       2.17937880
H        2.58500612       0.44087287       0.77690862
H        4.23227731      -1.70617235       4.49531059
H        5.57845581      -3.12787564       5.97389681
H        5.44643885      -5.56871805       5.83234557
H        2.72194651      -5.21673752       2.51460782
H        6.02692279      -7.47828405       4.58568099
H        5.79915049      -9.91821362       4.56889372
H        3.64936974     -10.97948290       4.05311005
H        1.86383619      -7.09663162       3.55279238
H        2.15744037     -11.36084527       2.20700268
H        0.02400888     -12.41472526       1.63449343
H       -2.08483835      -9.35971999       3.81483442
H        0.04370481      -8.32383284       4.43997340
