181
Properties=species:S:1:pos:R:3 pbc="F F F"
C        0.00000000       0.00000000       0.00000000
C        0.88139951       0.88139951      -0.88139951
C        0.33953255       2.00138409      -1.50340600
C        1.14857095       2.80447493      -2.31504273
C        2.50969136       2.50863802      -2.51433956
C        3.02858557       1.37170318      -1.86706005
C        2.22297628       0.56092395      -1.05993134
C        3.36223321       3.35751736      -3.37423017
C        3.27700937       4.76092102      -3.33205400
C        4.08011128       5.56393687      -4.14801312
C        4.99482497       4.97837423      -5.02021719
C        5.10351965       3.59027025      -5.07817058
C        4.29071875       2.79003198      -4.26661949
C        6.04487443       2.97880063      -5.96558658
C        6.82998873       2.45247946      -6.70462539
C        7.82354403       1.76673152      -7.64775806
C        8.59523141       1.22258270      -8.38906493
C        9.51297506       0.57273081      -9.27352369
C        9.99281022       1.24490324     -10.39660200
C       10.88935635       0.61003142     -11.25291180
C       11.30827121      -0.69622456     -10.98397534
C       10.83727894      -1.39821466      -9.86000035
C        9.92889831      -0.73805543      -9.01192530
C       11.28311774      -2.77810577      -9.57832037
C       11.65703393      -3.17190215      -8.28047742
C       12.08085728      -4.47759116      -8.01035459
C       12.14112152      -5.41043724      -9.04064317
C       11.77918654      -5.05066879     -10.33487593
C       11.35153982      -3.74476302     -10.59818949
Br      12.71771990      -7.17367932      -8.68067888
H       -0.70791700       2.25839918      -1.37035044
H        0.69599252       3.66408146      -2.80581077
H        4.07910144       1.10859039      -1.97696124
H        2.65506024      -0.31171463      -0.57744459
H        2.58576665       5.24874259      -2.64722145
H        3.99314665       6.64644840      -4.09767827
H        5.61854420       5.60913872      -5.64895106
H        4.37739380       1.70747603      -4.34223125
H        9.67380288       2.26222939     -10.61011913
H       11.26779370       1.13200990     -12.12818140
H       12.02373294      -1.16060585     -11.66019404
H        9.53035236      -1.25367203      -8.13987689
H       11.63404093      -2.45481943      -7.46183492
H       12.36312607      -4.74983318      -6.99686338
H       11.82163117      -5.77376001     -11.14498801
H       11.05818175      -3.49047300     -11.61507471
C       -0.88139951      -0.88139951      -0.88139951
C       -0.57812271      -2.23008965      -1.03611028
C       -1.38476091      -3.03441600      -1.84891170
C       -2.50830881      -2.51012866      -2.51423147
C       -2.79096767      -1.14333765      -2.33304349
C       -1.98413573      -0.33248507      -1.52721077
C       -3.35805834      -3.36151461      -3.37440779
C       -3.71506293      -4.66625134      -2.98867012
C       -4.51519929      -5.47317815      -3.80368383
C       -4.98402399      -4.98732023      -5.02207216
C       -4.64976773      -3.69616011      -5.42603264
C       -3.84049615      -2.89535840      -4.61151567
C       -5.13188855      -3.18486873      -6.67250436
C       -5.52927674      -2.74299456      -7.71482227
C       -6.02438482      -2.16798646      -9.04566234
C       -6.40342147      -1.71338125     -10.09007631
C       -6.85272353      -1.17108859     -11.33541743
C       -7.24390979      -2.02416539     -12.36624028
C       -7.68459006      -1.49202620     -13.57568332
C       -7.73685755      -0.10637710     -13.75278735
C       -7.34500031       0.77657315     -12.73063747
C       -6.89917058       0.21583833     -11.51943593
C       -7.40272250       2.24035550     -12.92096535
C       -7.92569570       3.08420949     -11.92412299
C       -7.98294665       4.47081665     -12.10149070
C       -7.51985365       5.03453828     -13.28601208
C       -6.99845399       4.22599351     -14.29093320
C       -6.93928923       2.84037963     -14.10605670
Br      -7.60000074       6.90656426     -13.53128299
H        0.28223276      -2.66687405      -0.53619134
H       -1.11500196      -4.08200469      -1.96887810
H       -3.65760109      -0.69318066      -2.81387132
H       -2.22908770       0.71995713      -1.41165964
H       -3.38041580      -5.06751633      -2.03379856
H       -4.77500969      -6.47902999      -3.48323365
H       -5.60873630      -5.61907874      -5.64881894
H       -3.57462560      -1.89720785      -4.95526763
H       -7.20897760      -3.10290163     -12.23427216
H       -7.99303246      -2.15410937     -14.38084317
H       -8.10299345       0.28135992     -14.70168761
H       -6.57332453       0.86646171     -10.70969440
H       -8.30935220       2.66430329     -10.99600751
H       -8.39305711       5.09493535     -11.31203451
H       -6.63291459       4.65849478     -15.21843935
H       -6.51269423       2.22929947     -14.89938870
C       -0.88139951       0.88139951       0.88139951
C       -0.37682110       2.07085063       1.39665091
C       -1.18531068       2.87413553       2.20864240
C       -2.50933697       2.50894649       2.51438549
C       -2.99147804       1.30237025       1.97350051
C       -2.18562370       0.49151245       1.16669542
C       -3.36118781       3.35832157       3.37447136
C       -3.37074789       4.75853511       3.24070139
C       -4.17305458       5.56239278       4.05661391
C       -4.99218890       4.98010249       5.02112499
C       -5.00603737       3.59471807       5.17120504
C       -4.19398191       2.79451090       4.35887741
C       -5.84907552       2.98598483       6.15420128
C       -6.55118869       2.46194054       6.97396434
C       -7.43793366       1.77966954       8.02043042
C       -8.12536802       1.23884256       8.84266846
C       -8.94255990       0.59313842       9.82353123
C       -9.39548007       1.30663359      10.93220180
C      -10.19426909       0.67530857      11.88272192
C      -10.54251765      -0.66900376      11.72250811
C      -10.09650824      -1.41279801      10.61535440
C       -9.28708178      -0.75502190       9.67070829
C      -10.46753543      -2.83293581      10.44873272
C      -10.89387304      -3.33304718       9.20478333
C      -11.24712025      -4.67717391       9.04367437
C      -11.18281603      -5.54252612      10.13103753
C      -10.76640593      -5.07727743      11.37426518
C      -10.40978314      -3.73314566      11.52832882
Br     -11.66379321      -7.35762163       9.91854789
H        0.64140900       2.38244662       1.17979501
H       -0.76067893       3.79018668       2.61501914
H       -4.01378499       0.98299746       2.16787062
H       -2.58848220      -0.43571756       0.76802556
H       -2.75627882       5.24201799       2.48343389
H       -4.16038021       6.64258213       3.93431099
H       -5.61606128       5.61116674       5.64940596
H       -4.20481264       1.71594943       4.50633902
H       -9.13122942       2.35341945      11.06150253
H      -10.55158928       1.22922441      12.74717130
H      -11.18317111      -1.13119205      12.47134208
H       -8.90995269      -1.30115580       8.80776033
H      -10.96817916      -2.67102471       8.34390198
H      -11.57267310      -5.03198296       8.06946611
H      -10.71160358      -5.74703702      12.22829261
H      -10.07180241      -3.39531303      12.50629408
C        0.88139951      -0.88139951       0.88139951
C        0.37157277      -2.06270918       1.41004070
C        1.18013116      -2.86596681       2.22199064
C        2.50938014      -2.50890673       2.51438207
C        2.99670231      -1.31049681       1.96014969
C        2.19087984      -0.49964680       1.15330492
C        3.36131589      -3.35821708       3.37444777
C        3.35878043      -4.75947292       3.25173103
C        4.16118296      -5.56322330       4.06765502
C        4.99251394      -4.97987525       5.02102719
C        5.01846916      -3.59350500       5.15998632
C        4.20631819      -2.79329923       4.34775280
C        5.87405763      -2.98375985       6.13144415
C        6.58676629      -2.45886531       6.94146197
C        7.48714232      -1.77543401       7.97545727
C        8.18532499      -1.23362175       8.78793229
C        9.01534316      -0.58671957       9.75716683
C        9.47141804      -1.29503164      10.86786578
C       10.28268022      -0.66260059      11.80701876
C       10.64022672       0.67759954      11.63339482
C       10.19131295       1.41616586      10.52391754
C        9.36925222       0.75741614       9.59093210
C       10.57218320       2.83195533      10.34310447
C       10.99255544       3.31884820       9.09190195
C       11.35509170       4.65881600       8.91734500
C       11.30624539       5.53319229       9.99827435
C       10.89606900       5.08107540      11.24840008
C       10.53010138       3.74107386      11.41593878
Br      11.79980643       7.34268015       9.76759319
H       -0.65077097      -2.36790776       1.20369584
H        0.75153559      -3.77538638       2.63896278
H        4.02300533      -0.99773145       2.14391629
H        2.59785282       0.42118456       0.74412195
H        2.73452630      -5.24401223       2.50319216
H        4.13902705      -6.64420804       3.95403824
H        5.61636466      -5.61090432       5.64936501
H        4.22681755      -1.71372939       4.48655414
H        9.19996296      -2.33863459      11.00755385
H       10.64247891      -1.21250836      12.67299773
H       11.29042884       1.14057120      12.37346350
H        8.98959649       1.29971161       8.72667234
H       11.05480376       2.64949397       8.23574663
H       11.67568284       5.00334138       7.93781480
H       10.85332975       5.75795736      12.09748678
H       10.19724673       3.41365213      12.39918886
