90
Properties=species:S:1:pos:R:3 pbc="F F F"
C        1.83279443       1.83279443      -1.83279443
C        2.70599876       0.96211269      -2.73146824
C        1.94495690       0.32646625      -3.89806245
C        1.08047307       1.31482929      -4.67531304
Br       2.21332348       2.44748143      -5.80722385
C        0.20716862       2.18553833      -3.77713906
C        0.96798392       2.82085292      -2.60996800
H        2.46078133       2.37331517      -1.11586150
H        3.19693291       0.17216467      -2.14937800
H        3.51395412       1.58450425      -3.13495652
H        2.65911606      -0.17307099      -4.56374620
H        1.29501707      -0.46540124      -3.50529880
H        0.45260969       0.77447942      -5.39272654
H       -0.28382400       2.97503606      -4.35873501
H       -0.60096503       1.56257147      -3.37326836
H        1.61754069       3.61305292      -3.00271439
H        0.25353813       3.32013886      -1.94427477
C       -1.83279443      -1.83279443      -1.83279443
C       -1.00713022      -2.97500955      -2.41743992
C       -0.68356845      -4.07888880      -1.40702834
C       -1.89682275      -4.55828523      -0.61550743
Br      -3.02932598      -5.69024580      -1.74845697
C       -2.72260931      -3.41653805      -0.03069865
C       -3.04578445      -2.31210490      -1.04091550
H       -2.15557184      -1.15961481      -2.63477135
H       -0.07183213      -2.59737684      -2.84926661
H       -1.56776940      -3.41395184      -3.25169366
H       -0.20454325      -4.91562150      -1.92962652
H        0.06294518      -3.69996949      -0.69789033
H       -1.57427344      -5.23193043       0.18638822
H       -3.65739507      -3.79374153       0.40118952
H       -2.16137077      -2.97727370       0.80376968
H       -3.79267362      -2.69089820      -1.74973618
H       -3.52460282      -1.47535128      -0.51799766
C       -1.83279443       1.83279443       1.83279443
C       -1.99277245       3.21035243       1.19645482
C       -2.94522623       3.22644791      -0.00218854
C       -4.27617719       2.52960958       0.26482864
Br      -5.40813456       3.66212000       1.39777420
C       -4.11666961       1.15216831       0.90100808
C       -3.16364312       1.13572841       2.09943332
H       -1.26527777       1.91856289       2.76611734
H       -1.01933040       3.61149373       0.88765145
H       -2.37405688       3.90032195       1.95903606
H       -3.10596795       4.26371478      -0.31989146
H       -2.45700799       2.72509893      -0.84719229
H       -4.84414492       2.44410176      -0.66843103
H       -5.08951255       0.75089573       1.20953879
H       -3.73486366       0.46204683       0.13796431
H       -3.65209509       1.63664598       2.94456693
H       -3.00286842       0.09828174       2.41680160
C        1.83279443      -1.83279443       1.83279443
C        3.17421606      -2.07737311       1.14799052
C        4.11336855      -0.86881192       1.18730513
C        4.25102854      -0.24607709       2.57350978
Br       5.38308523      -1.37909671       3.70584682
C        2.91001338      -0.00129053       3.25854209
C        1.97034645      -1.20967705       3.21878135
H        1.27454274      -2.77302557       1.90238968
H        3.02800116      -2.38537406       0.10510036
H        3.66609517      -2.92241692       1.64490281
H        5.09390389      -1.16237067       0.79351671
H        3.73077643      -0.10256605       0.50157215
H        4.80971251       0.69410482       2.50420796
H        3.05587823       0.30679736       4.30086621
H        2.41787393       0.84402106       2.76102193
H        2.35270148      -1.97570173       3.90490479
H        0.98976450      -0.91577350       3.61241375
C       -0.00445707       0.01189536      -1.78238275
H       -0.66409135       0.67374010      -2.43557963
H        0.65740317      -0.63156657      -2.45157240
C       -0.90989263      -0.90692880      -0.91072765
C        0.90977584       0.90977584      -0.90977584
C       -0.00465871       1.77757030       0.00794375
H       -0.66225468       2.44313916      -0.64384735
H        0.64322798       2.43503045       0.67728295
C       -1.78241447       0.00034974      -0.00472694
H       -2.45427497      -0.65498947       0.64260836
H       -2.43311707       0.67328779      -0.65473579
C       -0.91132561       0.90220522       0.91563759
C       -0.01476271      -0.02253852       1.78660255
H       -0.67934791      -0.69751639       2.42135241
H        0.63392994       0.61504881       2.47327442
C        0.01484550      -1.77751727      -0.01636693
H        0.67870853      -2.42144646      -0.68295456
H       -0.62264859      -2.45592969       0.64226336
C        1.78714474       0.01002794       0.00389507
H        2.44202412       0.67113390       0.66197326
H        2.45385902      -0.65136977      -0.64189061
C        0.91606151      -0.90478549       0.90901405
