178
Properties=species:S:1:pos:R:3 pbc="F F F"
C        1.82843331       1.82843331      -1.82843331
H        2.82599363       1.78930528      -1.37692549
C        1.29272814       3.25582153      -1.80638379
C        2.09197340       4.15649185      -2.74619574
C        2.13412971       3.59308247      -4.17372287
H        1.11064276       3.58652156      -4.57215445
C        2.66368593       2.15312802      -4.18215876
C        1.86316087       1.25358728      -3.24064358
C        2.95977268       4.45677380      -5.03673674
C        3.60769756       5.18933522      -5.73157646
C        4.39549207       6.16485242      -6.61081520
C        4.96283500       6.96857981      -7.29905396
C        5.60105255       7.99457604      -8.14196107
H        6.19640486       8.65328696      -7.49565176
C        4.52334818       8.84124195      -8.83542976
C        5.13267845       9.87652344      -9.77773240
C        6.05983768       9.21459346     -10.79074120
H        5.48376976       8.59196059     -11.48435048
C        7.14626663       8.38666813     -10.11241587
C        6.53961463       7.34771584      -9.16918400
H        1.33520921       3.66401571      -0.78922052
H        0.23656465       3.27417137      -2.10593601
H        1.64843137       5.16020638      -2.75025137
H        3.11218044       4.27054526      -2.35527881
H        2.62181921       1.74217800      -5.19876041
H        3.72077174       2.13714144      -3.88445825
H        0.84398094       1.14191430      -3.63365641
H        2.30573437       0.25010111      -3.23319197
H        3.90600963       9.35210899      -8.08557018
H        3.84377516       8.19258053      -9.40500982
H        4.32814523      10.41636901     -10.29190793
H        5.67967802      10.62156548      -9.18524871
H        7.76334236       7.87891145     -10.86362368
H        7.82213422       9.03678121      -9.54131833
H        5.99513973       6.59907126      -9.76030238
H        7.34627871       6.80952282      -8.65557328
C        6.67422760      10.23063725     -11.60546818
C        7.18877916      11.08157391     -12.28780203
Br       8.02076550      12.45746654     -13.39107816
C       -1.82843331      -1.82843331      -1.82843331
H       -1.29909529      -1.90873000      -2.78439911
C       -3.17919393      -1.14934528      -2.02639426
C       -4.12728187      -2.03731671      -2.83006242
C       -4.28309564      -3.42525800      -2.19258141
H       -4.75761338      -3.30194846      -1.20975693
C       -2.91741253      -4.09378814      -1.98777204
C       -1.96988530      -3.20347245      -1.18403397
C       -5.15765405      -4.27123508      -3.02439410
C       -5.89807178      -4.93386039      -3.69667707
C       -6.88533157      -5.74362723      -4.54220089
C       -7.70643499      -6.34348356      -5.18055021
C       -8.76380371      -7.04040422      -5.93338174
H       -8.85312773      -6.57033987      -6.92187599
C      -10.10650696      -6.89086742      -5.20264551
C      -11.22496989      -7.65584388      -5.90612052
C      -10.85109012      -9.12199248      -6.09208975
H      -10.80783151      -9.63002923      -5.12222009
C       -9.52844773      -9.28272432      -6.83417858
C       -8.40568493      -8.51924904      -6.13158050
H       -3.05256375      -0.19108188      -2.54479980
H       -3.63975706      -0.92063571      -1.05627926
H       -5.10555396      -1.54616768      -2.90716748
H       -3.74773713      -2.13392032      -3.85634706
H       -3.04128590      -5.05266406      -1.46880766
H       -2.45940528      -4.32378047      -2.95918568
H       -2.35207965      -3.10839964      -0.15907236
H       -0.99056003      -3.69125498      -1.10721244
H      -10.38062017      -5.83052347      -5.13254516
H      -10.01581432      -7.25534590      -4.17020527
H      -12.14800591      -7.56832309      -5.32009317
H      -11.42552720      -7.18402281      -6.87694220
H       -9.25764140     -10.34317320      -6.90506288
H       -9.62076854      -8.91487070      -7.86459452
H       -8.20073394      -8.99211441      -5.16166503
H       -7.48367092      -8.60772084      -6.71998304
C      -11.89436795      -9.78734178      -6.82862329
C      -12.76811314     -10.34457183      -7.44547014
Br     -14.18088520     -11.24556569      -8.44285931
C       -1.82843331       1.82843331       1.82843331
H       -2.70087794       2.07727187       1.21407459
C       -1.06268636       3.09406345       2.19818365
C       -1.87392036       3.96676738       3.15397326
C       -2.31026827       3.18777134       4.40289544
H       -1.40961116       2.89865182       4.96105579
C       -3.06940695       1.91109867       4.01846709
C       -2.25639017       1.03950700       3.06149455
C       -3.13719255       4.04361299       5.27247769
C       -3.78038535       4.76494093       5.98328295
C       -4.55504356       5.71771132       6.89840481
C       -5.10704827       6.49180709       7.63161340
C       -5.72143681       7.46809934       8.54805353
H       -6.04592717       8.33796427       7.96145215
C       -4.68363585       7.93820502       9.57817901
C       -5.28943125       8.90029443      10.59720861
C       -6.50783445       8.28303881      11.27429909
H       -6.20560614       7.44380604      11.91066864
C       -7.55398146       7.83019524      10.26117393
C       -6.95120085       6.86529289       9.24002072
H       -0.82041964       3.67080168       1.29722411
H       -0.10558877       2.83908536       2.67199790
H       -1.27521250       4.83937770       3.44429891
H       -2.75450850       4.35737981       2.62611620
H       -3.31262136       1.33193288       4.91820338
H       -4.02737366       2.16822629       3.54677148
H       -1.37682018       0.65104059       3.59169087
H       -2.85341543       0.16749772       2.76811430
H       -3.84453816       8.42966231       9.06948834
H       -4.26028197       7.07357527      10.10750826
H       -4.52980804       9.16308210      11.34353202
H       -5.56380086       9.83388160      10.08880976
H       -8.39257357       7.34144510      10.77185881
H       -7.97320115       8.69570751       9.73132510
H       -6.67959514       5.92900130       9.74591693
H       -7.71270929       6.60444497       8.49422055
C       -7.09509799       9.24960810      12.16562693
C       -7.58693121      10.05910989      12.91211400
Br      -8.38218393      11.36800580      14.11912046
C        1.82843331      -1.82843331       1.82843331
H        1.24250642      -2.01427298       2.73544500
C        3.10930164      -1.07521997       2.17041186
C        4.06283042      -1.95293340       2.97889717
C        4.36275733      -3.27670885       2.26146887
H        4.89282281      -3.04984158       1.32665438
C        3.06673571      -4.01993278       1.91230422
C        2.11359819      -3.13984353       1.10395001
C        5.23813741      -4.11970373       3.09544208
C        5.97750805      -4.77773688       3.77336430
C        6.96144425      -5.57802935       4.63168609
C        7.77881876      -6.16563136       5.28601865
C        8.83057563      -6.84209050       6.06492354
H        8.81776108      -6.44056601       7.08701651
C       10.20539505      -6.54842783       5.44619701
C       11.32627766      -7.28483262       6.17582400
C       11.04879650      -8.78270453       6.23367131
H       11.10895370      -9.22023565       5.23089147
C        9.69398285      -9.08696993       6.86439786
C        8.56887191      -8.35241577       6.13522678
H        2.87793696      -0.16827855       2.74222992
H        3.61691070      -0.74535978       1.25440156
H        4.99504623      -1.40325180       3.16059109
H        3.62235015      -2.14993747       3.96571689
H        3.29544022      -4.92763055       1.33968685
H        2.56167508      -4.35099018       2.82970617
H        2.55673663      -2.94427886       0.11853616
H        1.18006904      -3.68626793       0.92269049
H       10.40538667      -5.46959601       5.46870612
H       10.21212128      -6.84177508       4.38746914
H       12.27820843      -7.09203817       5.66617556
H       11.42521492      -6.87269229       7.18858501
H        9.49723584     -10.16573824       6.84290340
H        9.68876775      -8.79000554       7.92146047
H        8.46557760      -8.76596068       5.12297510
H        7.61786580      -8.54626052       6.64724849
C       12.08533478      -9.42751843       6.99747982
C       12.95343558      -9.96755007       7.63716945
Br      14.35708116     -10.84073557       8.67149348
C       -0.00445707       0.01189536      -1.78238275
H       -0.66409135       0.67374010      -2.43557963
H        0.65740317      -0.63156657      -2.45157240
C       -0.90989263      -0.90692880      -0.91072765
C        0.90977584       0.90977584      -0.90977584
C       -0.00465871       1.77757030       0.00794375
H       -0.66225468       2.44313916      -0.64384735
H        0.64322798       2.43503045       0.67728295
C       -1.78241447       0.00034974      -0.00472694
H       -2.45427497      -0.65498947       0.64260836
H       -2.43311707       0.67328779      -0.65473579
C       -0.91132561       0.90220522       0.91563759
C       -0.01476271      -0.02253852       1.78660255
H       -0.67934791      -0.69751639       2.42135241
H        0.63392994       0.61504881       2.47327442
C        0.01484550      -1.77751727      -0.01636693
H        0.67870853      -2.42144646      -0.68295456
H       -0.62264859      -2.45592969       0.64226336
C        1.78714474       0.01002794       0.00389507
H        2.44202412       0.67113390       0.66197326
H        2.45385902      -0.65136977      -0.64189061
C        0.91606151      -0.90478549       0.90901405
