58
Properties=species:S:1:pos:R:3 pbc="F F F"
C        1.79188045       1.79188045      -1.79188045
C        1.51797489       3.14928865      -1.90267360
N        2.25870197       3.99178693      -2.66743415
C        3.29413527       3.41801358      -3.32340625
Br       4.38619605       4.50925430      -4.41534376
C        3.56815773       2.06095716      -3.21277272
N        2.82684855       1.21882969      -2.44766080
H        0.68778343       3.60957042      -1.37680329
H        4.39783574       1.60080914      -3.73830146
C       -1.79188045      -1.79188045      -1.79188045
C       -1.20535210      -2.67297630      -2.69160874
N       -1.92659388      -3.48574865      -3.50558053
C       -3.27042632      -3.38182511      -3.38330367
Br      -4.36268175      -4.47328299      -4.47482936
C       -3.85701978      -2.50101649      -2.48385134
N       -3.13501651      -1.68833480      -1.66998773
H       -0.12785603      -2.75646465      -2.78983646
H       -4.93388867      -2.41746681      -2.38559087
C       -1.79188045       1.79188045       1.79188045
C       -3.11394966       1.43318330       2.02280419
N       -3.95425576       2.16865054       2.79501675
C       -3.41535148       3.28774789       3.33245572
Br      -4.50663600       4.37991376       4.42424435
C       -2.09362427       3.64653845       3.10172489
N       -1.25367056       2.91044495       2.32922354
H       -3.54627600       0.53591622       1.59196492
H       -1.66142480       4.54327559       3.53224595
C        1.79188045      -1.79188045       1.79188045
C        3.11176663      -1.42919328       2.02897723
N        3.95193669      -2.16441152       2.80157484
C        3.41518595      -3.28744476       3.33292438
Br       4.50647186      -4.37961247       4.42470977
C        2.09564139      -3.65022480       3.09602142
N        1.25582248      -2.91437795       2.32313861
H        3.54236607      -0.52876984       1.60302123
H        1.66516805      -4.55011667       3.52166162
C       -0.00445707       0.01189536      -1.78238275
H       -0.66409135       0.67374010      -2.43557963
H        0.65740317      -0.63156657      -2.45157240
C       -0.90989263      -0.90692880      -0.91072765
C        0.90977584       0.90977584      -0.90977584
C       -0.00465871       1.77757030       0.00794375
H       -0.66225468       2.44313916      -0.64384735
H        0.64322798       2.43503045       0.67728295
C       -1.78241447       0.00034974      -0.00472694
H       -2.45427497      -0.65498947       0.64260836
H       -2.43311707       0.67328779      -0.65473579
C       -0.91132561       0.90220522       0.91563759
C       -0.01476271      -0.02253852       1.78660255
H       -0.67934791      -0.69751639       2.42135241
H        0.63392994       0.61504881       2.47327442
C        0.01484550      -1.77751727      -0.01636693
H        0.67870853      -2.42144646      -0.68295456
H       -0.62264859      -2.45592969       0.64226336
C        1.78714474       0.01002794       0.00389507
H        2.44202412       0.67113390       0.66197326
H        2.45385902      -0.65136977      -0.64189061
C        0.91606151      -0.90478549       0.90901405
