37
Properties=species:S:1:pos:R:3 pbc="F F F"
C        0.00000000       0.00000000       0.00000000
C        0.88197642       0.88197642      -0.88197642
C        0.60807087       2.23938463      -0.99276958
N        1.34879794       3.08188290      -1.75753013
C        2.38423124       2.50810956      -2.41350222
Br       3.47629202       3.59935027      -3.50543974
C        2.65825371       1.15105314      -2.30286870
N        1.91694453       0.30892566      -1.53775678
H       -0.22212060       2.69966640      -0.46689926
H        3.48793172       0.69090512      -2.82839744
C       -0.88197642      -0.88197642      -0.88197642
C       -0.29548624      -1.76040456      -1.78433427
N       -1.01673046      -2.57301046      -2.59847006
C       -2.36052530      -2.47171848      -2.47359924
Br      -3.45278086      -3.56317767      -3.56512350
C       -2.94708059      -1.59357720      -1.57151775
N       -2.22507490      -0.78106040      -0.75749167
H        0.78197964      -1.84178256      -1.88464214
H       -4.02391933      -1.51213679      -1.47117815
C       -0.88197642       0.88197642       0.88197642
C       -2.20379786       0.52282140       1.11360582
N       -3.04408852       1.25826006       1.88586239
C       -2.50542867       2.37780908       2.42260527
Br      -3.59671334       3.46997516       3.51439353
C       -1.18394919       2.73705746       2.19116889
N       -0.34401078       2.00099226       1.41862393
H       -2.63592820      -0.37480790       0.68332477
H       -0.75194564       3.63415662       2.62113201
C        0.88197642      -0.88197642       0.88197642
C        2.20103603      -0.51780389       1.12138516
N        3.04115457      -1.25292943       1.89412697
C        2.50521925      -2.37742789       2.42319588
Br       3.59650569      -3.46959629       3.51498006
C        1.18650113      -2.74169309       2.18398131
N        0.34673326      -2.00593806       1.41095564
H        2.63098158       0.38379457       0.69725806
H        0.75668138      -3.64275938       2.60779352
