45
Properties=species:S:1:pos:R:3 pbc="F F F"
C        0.00000000       0.00000000       0.00000000
C        0.88197642       0.88197642      -0.88197642
C        0.60807087       2.23938463      -0.99276958
N        1.34879794       3.08188290      -1.75753013
C        2.38423124       2.50810956      -2.41350222
C        2.65825371       1.15105314      -2.30286870
N        1.91694453       0.30892566      -1.53775678
H       -0.22212060       2.69966640      -0.46689926
H        3.48793172       0.69090512      -2.82839744
C        3.21585504       3.33910886      -3.24503215
C        3.91233997       4.03507077      -3.94143846
Br       5.03849720       5.16038233      -5.06746857
C       -0.88197642      -0.88197642      -0.88197642
C       -0.29542407      -1.76523528      -1.77956572
N       -1.01666430      -2.57814258      -2.59340410
C       -2.36052038      -2.47208536      -2.47323728
C       -2.94713786      -1.58911405      -1.57592363
N       -2.22513612      -0.77629867      -0.76219218
H        0.78209098      -1.85043469      -1.87610135
H       -4.02402569      -1.50385416      -1.47935442
C       -3.19229233      -3.30324923      -3.30445449
C       -3.88890135      -3.99934897      -4.00059889
Br      -5.01525920      -5.12488337      -5.12620552
C       -0.88197642       0.88197642       0.88197642
C       -2.20387385       0.52296169       1.11338953
N       -3.04416925       1.25840911       1.88563262
C       -2.50543443       2.37781974       2.42258885
C       -1.18387897       2.73692784       2.19136873
N       -0.34393587       2.00085397       1.41883713
H       -2.63606431      -0.37455662       0.68293738
H       -0.75181534       3.63391608       2.62150286
C       -3.33646717       3.20952367       3.25400520
C       -4.03245709       3.90607572       3.95031640
Br      -5.15781392       5.03234147       5.07619271
C        0.88197642      -0.88197642       0.88197642
C        2.20199574      -0.51952978       1.11869955
N        3.04217410      -1.25476303       1.89127385
C        2.50529203      -2.37755901       2.42299199
C        1.18561435      -2.74009855       2.18646263
N        0.34578722      -2.00423684       1.41360292
H        2.63270050       0.38070339       0.69244796
H        0.75503574      -3.63980025       2.61239828
C        3.33632568      -3.20926415       3.25440622
C        4.03231636      -3.90581721       3.95071564
Br       5.15767443      -5.03208459       5.07658908
