178
Properties=species:S:1:pos:R:3 pbc="F F F"
C        1.82773148       1.82773148      -1.82773148
C        1.00465221       2.60906166      -2.86046581
H        0.22017355       3.15888202      -2.32368595
C        0.35533631       1.70641219      -3.89688052
C        1.11275340       0.90396983      -4.76780036
C        0.48329985       0.06118233      -5.68902780
C       -0.90825690       0.00807056      -5.75639129
C       -1.67208578       0.80243578      -4.90512917
C       -1.04031629       1.64047734      -3.98967545
F       -1.80254966       2.38847510      -3.17874782
C        1.87223023       3.62198856      -3.50875112
C        2.60800897       4.42193710      -4.01525001
C        3.59752580       5.39711007      -4.66009100
C        4.41325134       6.09207870      -5.17787802
C        5.40294491       6.93526177      -5.80610308
H        6.27261484       6.30656075      -6.04318536
C        4.88899566       7.51761771      -7.11376826
C        5.53091932       7.21492212      -8.32602260
C        5.06623138       7.75078038      -9.53087692
C        3.95322498       8.59061807      -9.54387482
C        3.30663921       8.90062771      -8.35018457
C        3.77725796       8.36996580      -7.15222282
F        3.14486568       8.70023108      -6.01719283
C        5.87257521       8.05749694      -4.87208150
H        2.57429730       1.16703575      -2.27999150
H        2.34159134       2.50156031      -1.13363420
H        2.20025903       0.92757108      -4.73802763
H        1.08143374      -0.55695839      -6.35470031
H       -1.39568587      -0.65060435      -6.47057160
H       -2.75641741       0.77303958      -4.94389906
H        6.39933155       6.55905814      -8.34425099
H        5.57318048       7.50957289     -10.46263642
H        3.59066995       9.00186775     -10.48255901
H        2.43826790       9.55198766      -8.34275375
H        5.05079375       8.59150436      -4.38465759
H        6.50995595       8.78081465      -5.39129121
C        6.69434835       7.53804277      -3.80979328
C        7.38258335       7.10299991      -2.92012689
Br       8.49540115       6.39957239      -1.48161158
C       -1.82773148      -1.82773148      -1.82773148
C       -3.31089321      -1.45204973      -1.71123674
H       -3.40632437      -0.37791096      -1.91850619
C       -3.88275621      -1.74269329      -0.33317952
C       -3.93444920      -3.04459721       0.19452283
C       -4.43840518      -3.27365405       1.47854925
C       -4.89927423      -2.20974536       2.25281465
C       -4.86120511      -0.91526343       1.74098936
C       -4.35872867      -0.69249108       0.46138326
F       -4.32879581       0.56565078      -0.00152823
C       -4.07701305      -2.16229531      -2.76366154
C       -4.66187199      -2.76096058      -3.62236351
C       -5.36791789      -3.57891661      -4.70789237
C       -5.88326938      -4.28014138      -5.51979730
C       -6.50853735      -5.13092031      -6.50485209
H       -6.10613905      -6.14485175      -6.37137016
C       -8.01392800      -5.20537925      -6.30107438
C       -8.63034467      -6.43321065      -6.00830872
C      -10.01425390      -6.50913093      -5.82450385
C      -10.80073896      -5.36211375      -5.92486515
C      -10.20438493      -4.13774710      -6.21531947
C       -8.82680194      -4.06847791      -6.40416674
F       -8.28336308      -2.87912426      -6.69980225
C       -6.18690067      -4.68012366      -7.93512931
H       -1.61978339      -2.86291095      -1.53863020
H       -1.45550825      -1.67476311      -2.84651449
H       -3.58345825      -3.89331104      -0.38908844
H       -4.46946717      -4.28563608       1.87592758
H       -5.28708319      -2.38941988       3.25222169
H       -5.21545476      -0.07549503       2.33042856
H       -8.03912589      -7.34283235      -5.92068244
H      -10.47944744      -7.46639045      -5.59955190
H      -11.87590388      -5.42278567      -5.77640715
H      -10.80194135      -3.23507758      -6.29599039
H       -6.32543313      -3.60623824      -8.09528432
H       -6.77349609      -5.23034786      -8.67821787
C       -4.81421519      -4.95798627      -8.26998293
C       -3.66459111      -5.19069621      -8.55042283
Br      -1.80574619      -5.56696851      -9.00387043
C       -1.82773148       1.82773148       1.82773148
C       -1.02167496       2.51403798       2.93846673
H       -0.18456563       3.04833813       2.46983776
C       -0.47166912       1.52940663       3.95755326
C       -1.31139102       0.72535205       4.74778052
C       -0.77232569      -0.19289938       5.65408367
C        0.60963087      -0.32090805       5.78674387
C        1.45433915       0.47379586       5.01602246
C        0.91243352       1.38714976       4.11512025
F        1.75119860       2.13370896       3.38216290
C       -1.87082518       3.53734503       3.59479969
C       -2.59164019       4.34836884       4.10518705
C       -3.56409327       5.34047191       4.75016168
C       -4.37037988       6.05034941       5.26247877
C       -5.34862205       6.91162040       5.88406730
H       -6.25912478       6.31771991       6.04551626
C       -4.87483668       7.40191586       7.24362910
C       -5.59245790       7.07365898       8.40574716
C       -5.16478855       7.52515288       9.65794725
C       -4.01410788       8.30485485       9.76875514
C       -3.29243478       8.63925705       8.62575967
C       -3.72612052       8.19291421       7.38041185
F       -3.02063588       8.54537722       6.29627649
C       -5.71391275       8.10100048       4.98724042
H       -2.62810170       1.18502513       2.20819772
H       -2.27148490       2.56036132       1.14493963
H       -2.39345067       0.80640976       4.66599731
H       -1.43355481      -0.81126972       6.25689058
H        1.02672789      -1.03804427       6.48905354
H        2.53248504       0.38668051       5.10632576
H       -6.49175633       6.46332629       8.34755806
H       -5.73030485       7.26501895      10.55006600
H       -3.68070014       8.65036630      10.74403027
H       -2.39395450       9.24457000       8.69448482
H       -4.84291427       8.61518581       4.56885561
H       -6.34099014       8.82989249       5.51117918
C       -6.50430759       7.67728790       3.86058890
C       -7.16626327       7.32242862       2.91701825
Br      -8.23658962       6.74865117       1.39134432
C        1.82773148      -1.82773148       1.82773148
C        3.28193949      -1.33876050       1.85347969
H        3.27894174      -0.27978757       2.14401221
C        3.97192103      -1.48024375       0.50646423
C        4.16181167      -2.73039023      -0.10767832
C        4.77275987      -2.82276927      -1.36201916
C        5.20435328      -1.67188626      -2.02003458
C        5.02972304      -0.42691592      -1.42115979
C        4.42104897      -0.34033854      -0.17155102
F        4.26082702       0.87285891       0.37670516
C        4.02320524      -2.07144888       2.90831578
C        4.58949019      -2.69120516       3.76450073
C        5.27696855      -3.53787116       4.83988715
C        5.78541789      -4.26098310       5.63680707
C        6.40231232      -5.13831614       6.60368129
H        6.09010800      -6.16513819       6.36711476
C        7.91968136      -5.08863487       6.51206541
C        8.64857068      -6.24277791       6.18051545
C       10.04381602      -6.20480689       6.09926577
C       10.73005374      -5.01553252       6.34213160
C       10.02154881      -3.86321726       6.67268543
C        8.63274689      -3.90773832       6.75896137
F        7.97919699      -2.78684605       7.09624655
C        5.94503677      -4.82366199       8.03345489
H        1.72169741      -2.84970696       1.44992017
H        1.37268759      -1.78106503       2.82303324
H        3.83652380      -3.64465974       0.38467420
H        4.91037625      -3.79616402      -1.82736461
H        5.67557064      -1.74548984      -2.99677910
H        5.35936093       0.47914225      -1.91969745
H        8.13724655      -7.18295943       5.98243469
H       10.59654633      -7.10597494       5.84286852
H       11.81456221      -4.98727493       6.27325956
H       10.54021151      -2.92895694       6.86384086
H        5.98829885      -3.75820764       8.28044921
H        6.51759633      -5.38618583       8.77827965
C        4.57746604      -5.22431444       8.24040392
C        3.43212555      -5.55986087       8.41372373
Br       1.58020685      -6.10241106       8.69396721
C       -0.00445707       0.01189536      -1.78238275
H       -0.66409135       0.67374010      -2.43557963
H        0.65740317      -0.63156657      -2.45157240
C       -0.90989263      -0.90692880      -0.91072765
C        0.90977584       0.90977584      -0.90977584
C       -0.00465871       1.77757030       0.00794375
H       -0.66225468       2.44313916      -0.64384735
H        0.64322798       2.43503045       0.67728295
C       -1.78241447       0.00034974      -0.00472694
H       -2.45427497      -0.65498947       0.64260836
H       -2.43311707       0.67328779      -0.65473579
C       -0.91132561       0.90220522       0.91563759
C       -0.01476271      -0.02253852       1.78660255
H       -0.67934791      -0.69751639       2.42135241
H        0.63392994       0.61504881       2.47327442
C        0.01484550      -1.77751727      -0.01636693
H        0.67870853      -2.42144646      -0.68295456
H       -0.62264859      -2.45592969       0.64226336
C        1.78714474       0.01002794       0.00389507
H        2.44202412       0.67113390       0.66197326
H        2.45385902      -0.65136977      -0.64189061
C        0.91606151      -0.90478549       0.90901405
