90
Properties=species:S:1:pos:R:3 pbc="F F F"
C        1.79199386       1.79199386      -1.79199386
N        1.43775753       3.08417008      -1.97001535
C        2.26117489       3.80883355      -2.77060454
C        3.40980633       3.29227993      -3.37065731
N        3.75502888       1.99041875      -3.17262416
C        2.92619125       1.25933072      -2.38396060
C        4.29202928       4.10195385      -4.21986902
N        4.70630099       3.55113485      -5.39394495
C        5.52106372       4.31675551      -6.16486815
C        5.91242603       5.59674406      -5.80250271
N        5.50348621       6.16179529      -4.64483878
C        4.70038253       5.38880854      -3.86923381
Br       7.04185122       6.59206870      -6.94483897
H        1.94872402       4.83747276      -2.92400732
H        3.21354652       0.22279236      -2.24551065
H        5.84729367       3.85740507      -7.09187520
H        4.40259191       5.84822399      -2.93226018
C       -1.79199386      -1.79199386      -1.79199386
N       -1.22680394      -2.84973293      -2.41540609
C       -2.06554240      -3.58643013      -3.18864045
C       -3.42452628      -3.30927226      -3.33894504
N       -3.97762686      -2.24434722      -2.69609771
C       -3.13877881      -1.49742909      -1.93327468
C       -4.31324214      -4.13140728      -4.16920273
N       -5.16548239      -3.47906907      -5.00682933
C       -5.97834436      -4.25791881      -5.76642421
C       -5.95056661      -5.64344905      -5.71765714
N       -5.10492336      -6.30692347      -4.89827345
C       -4.30316976      -5.52568844      -4.12956668
Br      -7.11367362      -6.64532557      -6.81975970
H       -1.59073127      -4.41690679      -3.70256604
H       -3.59640509      -0.64891584      -1.43652859
H       -6.65588828      -3.71987821      -6.42080745
H       -3.64912802      -6.07435137      -3.45959670
C       -1.79199386       1.79199386       1.79199386
N       -2.97757593       1.29954499       2.21482204
C       -3.71388541       2.13806284       2.98866473
C       -3.29922232       3.41880799       3.35471327
N       -2.09777437       3.89422876       2.92606867
C       -1.36530749       3.06360328       2.14057181
C       -4.10807534       4.29996656       4.20581025
N       -4.23854644       5.59761544       3.81521891
C       -4.99121017       6.39557789       4.61589932
C       -5.61263940       5.93303631       5.76599708
N       -5.50056019       4.64611283       6.16344726
C       -4.73587872       3.85377799       5.36876816
Br      -6.64913002       7.11583831       6.81379056
H       -4.67434739       1.73721173       3.29864498
H       -0.41574535       3.46373402       1.80237015
H       -5.07620783       7.42762272       4.29274340
H       -4.63590542       2.83067042       5.71650026
C        1.79199386      -1.79199386       1.79199386
N        2.98589238      -1.30667138       2.19937919
C        3.72161283      -2.14483690       2.97416325
C        3.29864011      -3.41828975       3.35581371
N        2.08897922      -3.88649220       2.94260038
C        1.35692108      -3.05636062       2.15620088
C        4.10722144      -4.29905538       4.20757532
N        4.22218957      -5.60137674       3.82781447
C        4.97488225      -6.39889569       4.62890944
C        5.61112284      -5.93160493       5.76894503
N        5.51451021      -4.64011522       6.15549485
C        4.74980474      -3.84805740       5.36056273
Br       6.64637817      -7.11429105       6.81808967
H        4.68852870      -1.75005732       3.27161808
H        0.40064992      -3.45077903       1.83042057
H        5.04743607      -7.43459775       4.31454013
H        4.66242183      -2.82092840       5.69972586
C       -0.00445707       0.01189536      -1.78238275
H       -0.66409135       0.67374010      -2.43557963
H        0.65740317      -0.63156657      -2.45157240
C       -0.90989263      -0.90692880      -0.91072765
C        0.90977584       0.90977584      -0.90977584
C       -0.00465871       1.77757030       0.00794375
H       -0.66225468       2.44313916      -0.64384735
H        0.64322798       2.43503045       0.67728295
C       -1.78241447       0.00034974      -0.00472694
H       -2.45427497      -0.65498947       0.64260836
H       -2.43311707       0.67328779      -0.65473579
C       -0.91132561       0.90220522       0.91563759
C       -0.01476271      -0.02253852       1.78660255
H       -0.67934791      -0.69751639       2.42135241
H        0.63392994       0.61504881       2.47327442
C        0.01484550      -1.77751727      -0.01636693
H        0.67870853      -2.42144646      -0.68295456
H       -0.62264859      -2.45592969       0.64226336
C        1.78714474       0.01002794       0.00389507
H        2.44202412       0.67113390       0.66197326
H        2.45385902      -0.65136977      -0.64189061
C        0.91606151      -0.90478549       0.90901405
