106
Properties=species:S:1:pos:R:3 pbc="F F F"
C        1.79233658       1.79233658      -1.79233658
N        1.51630452       3.11569335      -1.86076802
C        2.33399950       3.83798859      -2.66818985
C        3.38253530       3.26653530      -3.37591849
N        3.66416952       1.94557646      -3.30868751
C        2.84432806       1.22416033      -2.50081380
C        4.21825665       4.02937302      -4.24089862
C        4.90666399       4.66579542      -4.99184186
C        5.76096638       5.46678632      -5.97782868
C        6.40983429       6.08322413      -6.77688977
C        7.16112318       6.80448052      -7.74973037
N        6.80951204       8.09946627      -7.91613705
C        7.51610556       8.76864069      -8.86397362
C        8.52641990       8.17522702      -9.61152923
N        8.87641024       6.87921572      -9.43882409
C        8.17102402       6.20881740      -8.49267437
Br       9.44539244       9.19079280     -10.91599874
H        2.11286966       4.89810398      -2.73130190
H        3.06417657       0.16349514      -2.44524799
H        7.23644552       9.80728888      -9.00361280
H        8.44369260       5.16791411      -8.35479451
C       -1.79233658      -1.79233658      -1.79233658
N       -2.05128256      -1.38466905      -3.05681429
C       -2.84720270      -2.21146921      -3.78150603
C       -3.36185428      -3.39432338      -3.26881143
N       -3.10377693      -3.80740394      -2.00725263
C       -2.30775130      -2.97833554      -1.28321535
C       -4.21754905      -4.24152835      -4.02945089
C       -4.96130991      -4.94321020      -4.65978115
C       -5.93902396      -5.81936792      -5.44718951
C       -6.73211145      -6.49008206      -6.04775468
C       -7.69831278      -7.27166324      -6.74535806
N       -8.05866329      -6.80446595      -7.96198612
C       -8.99869493      -7.54455632      -8.60546862
C       -9.55410944      -8.69694601      -8.06212070
N       -9.18759590      -9.16188716      -6.84496698
C       -8.24894804      -8.42332657      -6.20024117
Br     -10.86518768      -9.65246452      -9.03453178
H       -3.06282153      -1.88590065      -4.79355337
H       -2.09964943      -3.30362039      -0.26964988
H       -9.29354934      -7.17291145      -9.58088640
H       -7.95631333      -8.78853337      -5.22155451
C       -1.79233658       1.79233658       1.79233658
N       -1.99232217       3.07872582       1.42171791
C       -2.77902265       3.80684388       2.25431141
C       -3.34336050       3.27568430       3.40594429
N       -3.14896319       1.99045999       3.77901031
C       -2.36075263       1.26351839       2.94503116
C       -4.14600714       4.05603811       4.28648304
C       -4.80027365       4.71962728       5.04440034
C       -5.60245977       5.57226733       6.03085429
C       -6.20187854       6.24480587       6.82326378
C       -6.88649476       7.04705511       7.78178421
N       -6.98358223       8.36151998       7.48001315
C       -7.61591602       9.11935265       8.41345120
C       -8.12799712       8.59210878       9.59307024
N       -8.03068285       7.27491217       9.88885502
C       -7.39857877       6.51626508       8.95767194
Br      -8.98337841       9.73387115      10.83493442
H       -2.93712213       4.84026721       1.96488620
H       -2.19939432       0.23258156       3.24094383
H       -7.69434097      10.17520242       8.17780381
H       -7.31261461       5.46077315       9.19301345
C        1.79233658      -1.79233658       1.79233658
N        2.76710160      -1.20251267       2.52315162
C        3.51739155      -2.04540766       3.27737873
C        3.30469352      -3.41688418       3.30341139
N        2.33042280      -4.01059666       2.57741404
C        1.58108369      -3.16561977       1.82259873
C        4.11493261      -4.29527483       4.07832085
C        4.81437485      -5.04041074       4.70951567
C        5.72735136      -5.99551922       5.48271081
C        6.46104631      -6.74993849       6.05896340
C        7.34870093      -7.65101407       6.71561907
N        8.39934770      -7.07945631       7.34631135
C        9.25145009      -7.95071611       7.94655366
C        9.06550792      -9.32782407       7.91984415
N        8.01033673      -9.89461147       7.28950185
C        7.15824359      -9.02566900       6.68860319
Br      10.31568804     -10.45798941       8.77850654
H        4.30407257      -1.57814040       3.86006257
H        0.79977152      -3.63693349       1.23621470
H       10.09767142      -7.49783918       8.45183660
H        6.31415444      -9.47550378       6.17674299
C       -0.00445707       0.01189536      -1.78238275
H       -0.66409135       0.67374010      -2.43557963
H        0.65740317      -0.63156657      -2.45157240
C       -0.90989263      -0.90692880      -0.91072765
C        0.90977584       0.90977584      -0.90977584
C       -0.00465871       1.77757030       0.00794375
H       -0.66225468       2.44313916      -0.64384735
H        0.64322798       2.43503045       0.67728295
C       -1.78241447       0.00034974      -0.00472694
H       -2.45427497      -0.65498947       0.64260836
H       -2.43311707       0.67328779      -0.65473579
C       -0.91132561       0.90220522       0.91563759
C       -0.01476271      -0.02253852       1.78660255
H       -0.67934791      -0.69751639       2.42135241
H        0.63392994       0.61504881       2.47327442
C        0.01484550      -1.77751727      -0.01636693
H        0.67870853      -2.42144646      -0.68295456
H       -0.62264859      -2.45592969       0.64226336
C        1.78714474       0.01002794       0.00389507
H        2.44202412       0.67113390       0.66197326
H        2.45385902      -0.65136977      -0.64189061
C        0.91606151      -0.90478549       0.90901405
