178
Properties=species:S:1:pos:R:3 pbc="F F F"
C        1.82491710       1.82491710      -1.82491710
C        3.26351516       1.43149181      -1.64790381
C        4.05616962       2.01740491      -0.72846138
C        5.47593549       1.77651731      -0.54837997
C        6.19440429       2.03122993       0.56397904
C        5.55858663       2.43736355       1.82792104
C        5.43131135       3.78568256       2.17507653
C        4.81096592       4.13962650       3.37556848
C        4.32323151       3.14937957       4.22161999
C        4.44070709       1.80417420       3.88989845
C        5.05770183       1.44941506       2.68915264
O        3.72421419       3.54113572       5.38227152
C        7.67142697       1.77006123       0.64210145
C        3.76102681       0.37772843      -2.54958935
C        4.23445998       0.69209909      -3.82855014
C        4.73834854      -0.31572397      -4.65331110
C        4.76540791      -1.63070774      -4.20075921
C        4.29935393      -1.95970589      -2.93258487
C        3.80148280      -0.95191020      -2.10559117
O        5.26773397      -2.58140106      -5.03888221
H        1.63673480       2.85664040      -1.51176590
H        1.47436755       1.70776498      -2.85453261
H        3.61201516       2.75839273      -0.06393436
H        6.00449722       1.38430127      -1.41721729
H        5.80553115       4.56441089       1.51499040
H        4.70617374       5.18593746       3.64844578
H        4.06036191       1.02395444       4.54123739
H        5.14068615       0.39798089       2.42289143
H        3.42456836       2.74975992       5.85913679
H        7.94399841       0.81634584       0.18031997
H        8.06008804       1.78755962       1.66467644
H        4.22924978       1.71954030      -4.18374911
H        5.11404225      -0.07536380      -5.64380621
H        4.31860202      -2.98205032      -2.56965783
H        3.44724141      -1.20620544      -1.10871283
H        5.21340459      -3.44454534      -4.59664671
C        8.37573002       2.80227938      -0.07349822
C        8.96558383       3.66676208      -0.67281295
Br       9.91932756       5.06455750      -1.64185417
C       -1.82491710      -1.82491710      -1.82491710
C       -1.06477673      -2.21943150      -3.05870255
C       -1.11695116      -1.49246528      -4.19261947
C       -0.50008543      -1.84177442      -5.45897292
C       -0.20434779      -0.99304252      -6.46426488
C       -0.32115211       0.46653180      -6.31340883
C       -1.47525601       1.14676178      -6.71342316
C       -1.56097275       2.53078356      -6.54483475
C       -0.49744212       3.22716584      -5.98071482
C        0.65644184       2.56497426      -5.57639894
C        0.74202578       1.18160410      -5.74159414
O       -0.62555016       4.57682224      -5.83435047
C        0.41192499      -1.45903954      -7.75227219
C       -0.27087437      -3.45679992      -2.96067031
C       -0.85780932      -4.70625770      -3.19104219
C       -0.07972702      -5.86424695      -3.13196170
C        1.27734416      -5.77147816      -2.84132539
C        1.87596893      -4.53776352      -2.61043832
C        1.10006360      -3.37967154      -2.67555584
O        1.99840344      -6.92760105      -2.79601750
H       -2.71436301      -1.23165329      -2.05912480
H       -2.13244211      -2.68347642      -1.22074662
H       -1.68786441      -0.56408726      -4.18239056
H       -0.29441793      -2.90146315      -5.61013470
H       -2.31214887       0.60694028      -7.14974305
H       -2.45688542       3.06377845      -6.85055844
H        1.49042710       3.09839655      -5.13190262
H        1.63956806       0.66047033      -5.41581400
H        0.18172553       4.92173706      -5.41865408
H        1.20215327      -2.19707919      -7.58509836
H        0.81757851      -0.64293421      -8.35761553
H       -1.91485652      -4.78533946      -3.43234321
H       -0.52928154      -6.83554309      -3.31766003
H        2.93417667      -4.45490428      -2.38548192
H        1.56955151      -2.41274973      -2.50655058
H        2.91872955      -6.71046787      -2.57376764
C       -0.59649581      -2.09558856      -8.55942326
C       -1.44104823      -2.62869836      -9.23541227
Br      -2.80661806      -3.49069182     -10.32842934
C       -1.82491710       1.82491710       1.82491710
C       -2.63976840       2.74327686       0.95986551
C       -2.20796921       3.97411983       0.61994688
C       -2.96021700       4.96627908      -0.12566331
C       -2.44814409       6.01489678      -0.80138570
C       -1.00002635       6.17744978      -1.00944698
C       -0.22757618       6.96329767      -0.14895647
C        1.14689716       7.08714348      -0.36522238
C        1.74172186       6.42915519      -1.43644223
C        0.98751634       5.64270367      -2.30020449
C       -0.38550202       5.51578263      -2.08332040
O        3.08625569       6.57771880      -1.60838472
C       -3.31655763       7.00556398      -1.52273487
C       -3.94606851       2.22463425       0.51764184
C       -5.07885817       2.34568708       1.33056396
C       -6.31584167       1.88304666       0.87704734
C       -6.41699965       1.30036884      -0.38190911
C       -5.30130775       1.17303551      -1.20211034
C       -4.06608120       1.64092509      -0.75184252
O       -7.64461553       0.86479717      -0.78419758
H       -1.14621292       2.37318032       2.48574786
H       -2.43975337       1.15920098       2.43771080
H       -1.21261199       4.27757000       0.94416025
H       -4.04456646       4.85908743      -0.09763811
H       -0.68606268       7.47540151       0.69348745
H        1.75238995       7.69355566       0.30249971
H        1.44241352       5.12228687      -3.13679438
H       -0.97522818       4.89214525      -2.75159782
H        3.35987401       6.05514614      -2.38008064
H       -4.13018722       6.51718338      -2.06734633
H       -2.76114131       7.64090051      -2.21907060
H       -5.01011874       2.81245090       2.30996956
H       -7.19930036       1.98184642       1.50133787
H       -5.37056903       0.72227937      -2.18663888
H       -3.19457008       1.55243357      -1.39725484
H       -7.56036591       0.47510515      -1.66996510
C       -3.92287067       7.89324571      -0.56460875
C       -4.43065785       8.63667915       0.23782187
Br      -5.25170676       9.83874815       1.53528431
C        1.82491710      -1.82491710       1.82491710
C        0.96000057      -2.74542141       2.63748879
C        0.52160071      -2.41251914       3.86791606
C       -0.23260251      -3.26823292       4.76520235
C       -0.99983840      -2.86374312       5.79775046
C       -1.30758140      -1.44348881       6.03212173
C       -0.54514171      -0.67242550       6.91463360
C       -0.85415338       0.67640252       7.10557984
C       -1.91987399       1.24707047       6.41793556
C       -2.68668236       0.49402875       5.53569395
C       -2.37696459      -0.85312025       5.34180858
O       -2.18430747       2.56713565       6.63452151
C       -1.72249406      -3.83366517       6.68821563
C        0.63199645      -4.04042684       2.01592131
C        1.50582674      -5.12861702       2.12066545
C        1.15891687      -6.35874388       1.55827492
C       -0.05461924      -6.49727805       0.89280057
C       -0.93425809      -5.42615768       0.78033333
C       -0.59078455      -4.19830235       1.34764597
O       -0.35267692      -7.71674670       0.36114534
H        2.40834496      -1.14412953       2.45266661
H        2.51330471      -2.35952736       1.16383308
H        0.76424494      -1.42076446       4.24933283
H       -0.13031828      -4.34017166       4.59616240
H        0.29271006      -1.11161255       7.45062903
H       -0.26269858       1.28100914       7.78737313
H       -3.51798598       0.93050695       4.99157190
H       -2.96894517      -1.44097086       4.64374992
H       -2.93945700       2.82697458       6.08162307
H       -2.18520357      -4.64577384       6.11945400
H       -2.48859172      -3.36127903       7.31028391
H        2.44972723      -5.03160887       2.65120309
H        1.83048637      -7.20826793       1.64373036
H       -1.88417460      -5.52499250       0.26539163
H       -1.28325613      -3.36257498       1.27042995
H       -1.21743577      -7.66064316      -0.07770142
C       -0.78228391      -4.43686609       7.59692545
C        0.00514208      -4.94204685       8.35796993
Br       1.27834331      -5.75888142       9.58851449
C       -0.00445707       0.01189536      -1.78238275
H       -0.66409135       0.67374010      -2.43557963
H        0.65740317      -0.63156657      -2.45157240
C       -0.90989263      -0.90692880      -0.91072765
C        0.90977584       0.90977584      -0.90977584
C       -0.00465871       1.77757030       0.00794375
H       -0.66225468       2.44313916      -0.64384735
H        0.64322798       2.43503045       0.67728295
C       -1.78241447       0.00034974      -0.00472694
H       -2.45427497      -0.65498947       0.64260836
H       -2.43311707       0.67328779      -0.65473579
C       -0.91132561       0.90220522       0.91563759
C       -0.01476271      -0.02253852       1.78660255
H       -0.67934791      -0.69751639       2.42135241
H        0.63392994       0.61504881       2.47327442
C        0.01484550      -1.77751727      -0.01636693
H        0.67870853      -2.42144646      -0.68295456
H       -0.62264859      -2.45592969       0.64226336
C        1.78714474       0.01002794       0.00389507
H        2.44202412       0.67113390       0.66197326
H        2.45385902      -0.65136977      -0.64189061
C        0.91606151      -0.90478549       0.90901405
