170
Properties=species:S:1:pos:R:3 pbc="F F F"
C        1.82491710       1.82491710      -1.82491710
C        3.26351516       1.43149181      -1.64790381
C        4.05616962       2.01740491      -0.72846138
C        5.47593549       1.77651731      -0.54837997
C        6.19440429       2.03122993       0.56397904
C        5.55858663       2.43736355       1.82792104
C        5.43131135       3.78568256       2.17507653
C        4.81096592       4.13962650       3.37556848
C        4.32323151       3.14937957       4.22161999
C        4.44070709       1.80417420       3.88989845
C        5.05770183       1.44941506       2.68915264
O        3.72421419       3.54113572       5.38227152
C        7.67142697       1.77006123       0.64210145
Br       8.62462314       3.16705416      -0.32638344
C        3.76102681       0.37772843      -2.54958935
C        4.23445998       0.69209909      -3.82855014
C        4.73834854      -0.31572397      -4.65331110
C        4.76540791      -1.63070774      -4.20075921
C        4.29935393      -1.95970589      -2.93258487
C        3.80148280      -0.95191020      -2.10559117
O        5.26773397      -2.58140106      -5.03888221
H        1.63673480       2.85664040      -1.51176590
H        1.47436755       1.70776498      -2.85453261
H        3.61201516       2.75839273      -0.06393436
H        6.00449722       1.38430127      -1.41721729
H        5.80553115       4.56441089       1.51499040
H        4.70617374       5.18593746       3.64844578
H        4.06036191       1.02395444       4.54123739
H        5.14068615       0.39798089       2.42289143
H        3.42456836       2.74975992       5.85913679
H        7.94399841       0.81634584       0.18031997
H        8.06008804       1.78755962       1.66467644
H        4.22924978       1.71954030      -4.18374911
H        5.11404225      -0.07536380      -5.64380621
H        4.31860202      -2.98205032      -2.56965783
H        3.44724141      -1.20620544      -1.10871283
H        5.21340459      -3.44454534      -4.59664671
C       -1.82491710      -1.82491710      -1.82491710
C       -1.00820505      -2.37643455      -2.95827118
C       -0.91387836      -1.74351282      -4.14464473
C       -0.23333448      -2.24189252      -5.32560576
C        0.20695568      -1.50384635      -6.36476452
C        0.19967048      -0.03216343      -6.33553620
C       -0.86067041       0.69862662      -6.87987359
C       -0.84463840       2.09432937      -6.82471492
C        0.22663919       2.75187947      -6.22950975
C        1.28792050       2.03938519      -5.68228852
C        1.27155204       0.64461962      -5.73413592
O        0.19940676       4.11482788      -6.19731302
C        0.87894351      -2.11991681      -7.55841344
Br      -0.46509983      -2.96214670      -8.69081420
C       -0.32872175      -3.65832368      -2.70129917
C       -0.99737378      -4.87422310      -2.88351233
C       -0.32410673      -6.07923955      -2.67258939
C        1.00993348      -6.06636240      -2.27903047
C        1.68886523      -4.86695377      -2.09414439
C        1.01822921      -3.66249828      -2.31089470
O        1.62773893      -7.26632044      -2.08663361
H       -2.64205059      -1.18701967      -2.17607084
H       -2.24721058      -2.60488185      -1.18457272
H       -1.40547536      -0.77671086      -4.25215601
H       -0.10477529      -3.32299901      -5.37824148
H       -1.70356406       0.18993576      -7.34132335
H       -1.66772234       2.66693764      -7.24288071
H        2.12677553       2.54261211      -5.21246660
H        2.09570659       0.08532618      -5.29680839
H        0.99838009       4.43039584      -5.74396743
H        1.59065694      -2.89965092      -7.27103030
H        1.39533771      -1.38970099      -8.18860795
H       -2.03590874      -4.89226204      -3.20436841
H       -0.83672517      -7.02550399      -2.82025550
H        2.73010824      -4.84659617      -1.78972159
H        1.55156496      -2.72347263      -2.17784114
H        2.54323945      -7.10226826      -1.80647716
C       -1.82491710       1.82491710       1.82491710
C       -3.03321853       2.26223435       1.04745789
C       -3.05088793       3.41011265       0.34103533
C       -4.19562448       3.96368902      -0.35848073
C       -4.15964040       4.86387984      -1.36186506
C       -2.89737720       5.27102019      -2.00036825
C       -2.21081278       6.41580319      -1.58469859
C       -1.00822149       6.76848820      -2.20168574
C       -0.49885432       5.98014341      -3.22800664
C       -1.16890808       4.83782838      -3.65175362
C       -2.36913748       4.48275955      -3.03393278
O        0.67839029       6.36194905      -3.80048038
C       -5.40725240       5.39772468      -2.00559033
Br      -6.23210178       6.70858258      -0.82262363
C       -4.20341512       1.36949110       1.11543838
C       -5.11992785       1.46650968       2.16867169
C       -6.24360686       0.63794115       2.19438766
C       -6.44660055      -0.28392646       1.17278529
C       -5.54587081      -0.39257622       0.11893833
C       -4.42601997       0.43959953       0.08954427
O       -7.55806043      -1.07070571       1.23786040
H       -1.20217363       2.67098478       2.13198269
H       -2.07867642       1.24250122       2.71548751
H       -2.13610155       4.00102547       0.29721522
H       -5.17261031       3.63632724      -0.00292177
H       -2.60118858       7.03279221      -0.77902914
H       -0.46881623       7.65496825      -1.88011906
H       -0.77827039       4.21394537      -4.44913679
H       -2.88906629       3.58344422      -3.35673490
H        0.91430160       5.71506800      -4.48557491
H       -6.14779129       4.61117394      -2.17894095
H       -5.21855752       5.91528250      -2.95086880
H       -4.97511576       2.19410534       2.96331809
H       -6.96173570       0.71496931       3.00577965
H       -5.69680051      -1.10677214      -0.68381884
H       -3.72654582       0.36365099      -0.74044801
H       -7.56136076      -1.66667202       0.47081723
C        1.82491710      -1.82491710       1.82491710
C        0.95842411      -2.67879210       2.70569456
C        0.58212665      -2.28213113       3.93777813
C       -0.16799469      -3.07247183       4.89635563
C       -0.87774313      -2.59884353       5.94055478
C       -1.12160837      -1.15961164       6.13002587
C       -0.29596921      -0.38629149       6.95159510
C       -0.54554385       0.98001745       7.10058525
C       -1.61515067       1.56584260       6.43198437
C       -2.44445441       0.81070017       5.61013742
C       -2.19422719      -0.55407228       5.45811916
O       -1.82029481       2.90264303       6.60601623
C       -1.60098738      -3.50472972       6.89564440
Br      -0.31282410      -4.32340982       8.10747501
C        0.55693527      -3.98253078       2.14887854
C        1.39212327      -5.09970672       2.26327923
C        0.97657453      -6.33566061       1.76370053
C       -0.26677358      -6.45126337       1.15096959
C       -1.10871788      -5.35119560       1.02975521
C       -0.69649182      -4.11718606       1.53446953
O       -0.63192001      -7.67733948       0.67979565
H        2.45828044      -1.14435230       2.40250835
H        2.46569589      -2.41118840       1.15978086
H        0.87731242      -1.28695461       4.27007521
H       -0.11341460      -4.15328435       4.76614603
H        0.54511545      -0.83758521       7.47225098
H        0.09507238       1.58625808       7.73485112
H       -3.27942604       1.25871998       5.08122499
H       -2.83537430      -1.14418128       4.80696864
H       -2.58630699       3.17093883       6.07243732
H       -2.11648236      -4.31895214       6.37755450
H       -2.32327596      -2.97899628       7.52725091
H        2.35931445      -5.02002603       2.75319871
H        1.61813893      -7.20725240       1.85709333
H       -2.08136766      -5.43186747       0.55570972
H       -1.35912602      -3.25822789       1.45064693
H       -1.51062114      -7.60378147       0.27234563
C       -0.00445707       0.01189536      -1.78238275
H       -0.66409135       0.67374010      -2.43557963
H        0.65740317      -0.63156657      -2.45157240
C       -0.90989263      -0.90692880      -0.91072765
C        0.90977584       0.90977584      -0.90977584
C       -0.00465871       1.77757030       0.00794375
H       -0.66225468       2.44313916      -0.64384735
H        0.64322798       2.43503045       0.67728295
C       -1.78241447       0.00034974      -0.00472694
H       -2.45427497      -0.65498947       0.64260836
H       -2.43311707       0.67328779      -0.65473579
C       -0.91132561       0.90220522       0.91563759
C       -0.01476271      -0.02253852       1.78660255
H       -0.67934791      -0.69751639       2.42135241
H        0.63392994       0.61504881       2.47327442
C        0.01484550      -1.77751727      -0.01636693
H        0.67870853      -2.42144646      -0.68295456
H       -0.62264859      -2.45592969       0.64226336
C        1.78714474       0.01002794       0.00389507
H        2.44202412       0.67113390       0.66197326
H        2.45385902      -0.65136977      -0.64189061
C        0.91606151      -0.90478549       0.90901405
