122
Properties=species:S:1:pos:R:3 pbc="F F F"
C        1.82244232       1.82244232      -1.82244232
C        2.90499254       2.54953692      -1.03002023
N        4.02571176       1.68509833      -0.58640249
C        4.85051457       1.00826062      -1.61924674
C        5.18457278       1.82939929      -2.86074904
Br       6.39482895       3.30047146      -2.44386432
C        3.95823069       1.09877699       0.69080835
C        3.36362141       1.76123828       1.78093930
C        3.27850971       1.18488118       3.05752956
C        3.82067870      -0.07081791       3.28631668
Cl       3.72735086      -0.78104709       4.84909017
C        4.44631619      -0.74646050       2.25066937
C        4.50994638      -0.16652916       0.97474929
H        1.13940124       2.54831284      -2.27862704
H        2.22375470       1.17936254      -2.61203446
H        2.44393568       3.10825246      -0.21316020
H        3.32156488       3.33610065      -1.67029897
H        4.32561134       0.10085299      -1.94290500
H        5.80726890       0.69784090      -1.17892506
H        4.31226304       2.25841381      -3.35488977
H        5.71919289       1.21182598      -3.58658488
H        2.96519069       2.76500838       1.68060354
H        2.79506317       1.73240011       3.86252961
H        4.88516192      -1.72609164       2.41726502
H        4.99595125      -0.75764409       0.20447448
C       -1.82244232      -1.82244232      -1.82244232
C       -1.06568112      -2.40750937      -3.01135920
N       -0.12964814      -3.50422558      -2.66333885
C       -0.68198288      -4.74112545      -2.05491360
C       -2.00364928      -5.24299249      -2.62807933
Br      -1.79375433      -5.88968121      -4.45572920
C        1.21407745      -3.18281427      -2.39746251
C        1.87700696      -2.14384942      -3.07707794
C        3.21299582      -1.80406067      -2.81479650
C        3.93788293      -2.52419171      -1.87723533
Cl       5.57732962      -2.11933086      -1.55521237
C        3.33646865      -3.57798016      -1.20767481
C        1.99501777      -3.89692030      -1.46676540
H       -2.62585519      -1.16539838      -2.17508755
H       -2.25892678      -2.58569353      -1.17053138
H       -0.59179393      -1.60025818      -3.57329623
H       -1.80300397      -2.80757303      -3.71738750
H       -0.82147296      -4.56720915      -0.98068722
H        0.04171666      -5.55932201      -2.16642952
H       -2.79410610      -4.49186129      -2.63959923
H       -2.35834250      -6.10357840      -2.05568285
H        1.38179074      -1.57491898      -3.85646730
H        3.67422103      -0.98241870      -3.35673599
H        3.89469524      -4.15810760      -0.47839291
H        1.57989541      -4.72028014      -0.89344796
C       -1.82244232       1.82244232       1.82244232
C       -2.32688720       3.06437148       1.09329101
N       -3.39648389       2.80065378       0.10007490
C       -4.67896794       2.22291890       0.57613509
C       -5.21236415       2.76295127       1.89940569
Br      -5.77555263       4.62309615       1.74051595
C       -3.02993802       2.57585124      -1.23958993
C       -1.93754641       3.23741509      -1.83104111
C       -1.55283409       3.01511866      -3.16209141
C       -2.27908347       2.13855312      -3.95409248
Cl      -1.81908128       1.86610576      -5.58797343
C       -3.38328738       1.49012637      -3.42422743
C       -3.74754407       1.70814254      -2.08701868
H       -1.18602247       2.11456705       2.66575160
H       -2.62896928       1.18608538       2.20009704
H       -1.47848843       3.61056666       0.67629324
H       -2.72878192       3.75630073       1.84288185
H       -4.55445754       1.13759579       0.67731600
H       -5.46092115       2.39772193      -0.17460822
H       -4.49520948       2.71110172       2.71925542
H       -6.10942695       2.21335221       2.19482460
H       -1.35897376       3.97166987      -1.28104810
H       -0.69140552       3.54023641      -3.56670826
H       -3.96837626       0.80890145      -4.03547244
H       -4.61001661       1.15362857      -1.72981250
C        1.82244232      -1.82244232       1.82244232
C        1.83011731      -1.37357525       3.28085713
N        0.58589206      -1.68584854       4.02547197
C        0.19006501      -3.10883437       4.17912254
C        1.31825739      -4.09651299       4.45995073
Br       2.09068216      -3.81956934       6.22891324
C       -0.42680398      -0.71075030       4.08225300
C       -0.13084507       0.66402687       4.13879233
C       -1.12972471       1.64855572       4.18414178
C       -2.46560811       1.27707380       4.20622602
Cl      -3.69549001       2.47657829       4.26928191
C       -2.80390375      -0.06666886       4.18642121
C       -1.79622056      -1.04084774       4.12404075
H        2.82969294      -1.73837066       1.39827752
H        1.47429758      -2.85157831       1.68927581
H        2.11037680      -0.31977335       3.33519820
H        2.65975103      -1.88183000       3.78638346
H       -0.32081614      -3.42801085       3.26217462
H       -0.52555618      -3.20304264       5.00654839
H        2.13550626      -4.05063166       3.73942871
H        0.92920252      -5.11757675       4.47082448
H        0.89358854       1.01847151       4.17447850
H       -0.84813396       2.69807942       4.21114705
H       -3.84564446      -0.37330293       4.21414679
H       -2.13061024      -2.07333965       4.09110328
C       -0.00445707       0.01189536      -1.78238275
H       -0.66409135       0.67374010      -2.43557963
H        0.65740317      -0.63156657      -2.45157240
C       -0.90989263      -0.90692880      -0.91072765
C        0.90977584       0.90977584      -0.90977584
C       -0.00465871       1.77757030       0.00794375
H       -0.66225468       2.44313916      -0.64384735
H        0.64322798       2.43503045       0.67728295
C       -1.78241447       0.00034974      -0.00472694
H       -2.45427497      -0.65498947       0.64260836
H       -2.43311707       0.67328779      -0.65473579
C       -0.91132561       0.90220522       0.91563759
C       -0.01476271      -0.02253852       1.78660255
H       -0.67934791      -0.69751639       2.42135241
H        0.63392994       0.61504881       2.47327442
C        0.01484550      -1.77751727      -0.01636693
H        0.67870853      -2.42144646      -0.68295456
H       -0.62264859      -2.45592969       0.64226336
C        1.78714474       0.01002794       0.00389507
H        2.44202412       0.67113390       0.66197326
H        2.45385902      -0.65136977      -0.64189061
C        0.91606151      -0.90478549       0.90901405
