130
Properties=species:S:1:pos:R:3 pbc="F F F"
C        1.82244232       1.82244232      -1.82244232
C        2.90499254       2.54953692      -1.03002023
N        4.02571176       1.68509833      -0.58640249
C        4.85051457       1.00826062      -1.61924674
C        5.18457278       1.82939929      -2.86074904
C        3.95823069       1.09877699       0.69080835
C        3.36362141       1.76123828       1.78093930
C        3.27850971       1.18488118       3.05752956
C        3.82067870      -0.07081791       3.28631668
Cl       3.72735086      -0.78104709       4.84909017
C        4.44631619      -0.74646050       2.25066937
C        4.50994638      -0.16652916       0.97474929
H        1.13940124       2.54831284      -2.27862704
H        2.22375470       1.17936254      -2.61203446
H        2.44393568       3.10825246      -0.21316020
H        3.32156488       3.33610065      -1.67029897
H        4.32561134       0.10085299      -1.94290500
H        5.80726890       0.69784090      -1.17892506
H        4.31226304       2.25841381      -3.35488977
H        5.71919289       1.21182598      -3.58658488
H        2.96519069       2.76500838       1.68060354
H        2.79506317       1.73240011       3.86252961
H        4.88516192      -1.72609164       2.41726502
H        4.99595125      -0.75764409       0.20447448
C        6.07829263       2.91572005      -2.55289839
C        6.82678301       3.82551369      -2.29507347
Br       8.03702864       5.29657306      -1.87819239
C       -1.82244232      -1.82244232      -1.82244232
C       -1.28788281      -1.95074315      -3.24592374
N       -0.09602676      -2.82382087      -3.37736494
C       -0.22103825      -4.25510062      -3.00188306
C       -1.51748284      -4.94865543      -3.40858283
C        1.17997812      -2.23469913      -3.31147832
C        1.43117853      -0.94904378      -3.82605515
C        2.69530344      -0.34374036      -3.75742442
C        3.76039995      -1.03007121      -3.19387285
Cl       5.31410447      -0.29878260      -3.11253548
C        3.56789647      -2.31232912      -2.70475367
C        2.29525996      -2.89988538      -2.76404250
H       -2.80254865      -1.33169195      -1.83210052
H       -1.92078974      -2.78453158      -1.30983037
H       -1.14024226      -0.95543538      -3.66967070
H       -2.08428796      -2.37475902      -3.86891751
H       -0.11798793      -4.33857132      -1.91281008
H        0.59898993      -4.82641367      -3.45661112
H       -2.41833785      -4.43322125      -3.07400752
H       -1.53898717      -5.96664056      -3.01197602
H        0.65339672      -0.37968730      -4.32330496
H        2.83311284       0.65805280      -4.15609930
H        4.39501529      -2.86652722      -2.27029334
H        2.20934776      -3.89795828      -2.34522217
C       -1.61472662      -5.09428902      -4.83789543
C       -1.69616829      -5.21625716      -6.03494473
Br      -1.82785258      -5.41346931      -7.97047221
C       -1.82244232       1.82244232       1.82244232
C       -2.67346168       2.79730310       1.01378491
N       -3.81794572       2.17228765       0.30697920
C       -4.86642433       1.49780698       1.11379061
C       -5.27206336       2.19293043       2.40972731
C       -3.63827399       1.75143194      -1.02350660
C       -2.80890808       2.45320632      -1.91819400
C       -2.61075882       2.03943561      -3.24433308
C       -3.26992501       0.91760486      -3.72398576
Cl      -3.03860807       0.40810685      -5.34950131
C       -4.12335669       0.21449135      -2.88866173
C       -4.29988224       0.62867733      -1.55989165
H       -1.12681927       2.37466564       2.46485621
H       -2.41533340       1.14970777       2.45011052
H       -2.02879043       3.38197792       0.35457999
H       -3.07557335       3.54796063       1.70443052
H       -4.51611404       0.48879146       1.36446383
H       -5.77943060       1.39141577       0.51318850
H       -4.43458665       2.42118954       3.06979043
H       -5.98297757       1.57310753       2.96151865
H       -2.30407167       3.36574031      -1.62021645
H       -1.94732337       2.60829690      -3.89068660
H       -4.65492826      -0.65988370      -3.25323930
H       -4.96629354       0.02190388      -0.95436473
C       -5.96339852       3.42988902       2.15362353
C       -6.54239171       4.46584184       1.93913662
Br      -7.47857474       6.14088994       1.59232943
C        1.82244232      -1.82244232       1.82244232
C        1.30419381      -1.92643973       3.25391615
N        0.10337604      -2.78284240       3.41099413
C        0.20597900      -4.22010604       3.05193689
C        1.49874049      -4.92475113       3.45122948
C       -1.16597459      -2.17865765       3.35351626
C       -1.39480614      -0.88369753       3.85502900
C       -2.65211297      -0.26351619       3.79445811
C       -3.73258010      -0.94337714       3.25274708
Cl      -5.27802362      -0.19376322       3.18147401
C       -3.56207583      -2.23389114       2.77737101
C       -2.29615627      -2.83655005       2.82827415
H        2.80858345      -1.34391398       1.81384370
H        1.90246831      -2.79194926       1.32073413
H        1.17418080      -0.92420089       3.66696665
H        2.10303145      -2.35265653       3.87227651
H        0.08828381      -4.31573487       1.96535066
H       -0.61529293      -4.77544820       3.52387960
H        2.40163975      -4.42480564       3.09912123
H        1.50269616      -5.94774985       3.06715774
H       -0.60388475      -0.31801675       4.33546353
H       -2.77252995       0.74477412       4.18223773
H       -4.40135347      -2.78302239       2.36013634
H       -2.22783459      -3.84072020       2.42094708
C        1.61205628      -5.05391322       4.88094158
C        1.70695826      -5.16208646       6.07832546
Br       1.86040672      -5.33699345       8.01439393
C       -0.00445707       0.01189536      -1.78238275
H       -0.66409135       0.67374010      -2.43557963
H        0.65740317      -0.63156657      -2.45157240
C       -0.90989263      -0.90692880      -0.91072765
C        0.90977584       0.90977584      -0.90977584
C       -0.00465871       1.77757030       0.00794375
H       -0.66225468       2.44313916      -0.64384735
H        0.64322798       2.43503045       0.67728295
C       -1.78241447       0.00034974      -0.00472694
H       -2.45427497      -0.65498947       0.64260836
H       -2.43311707       0.67328779      -0.65473579
C       -0.91132561       0.90220522       0.91563759
C       -0.01476271      -0.02253852       1.78660255
H       -0.67934791      -0.69751639       2.42135241
H        0.63392994       0.61504881       2.47327442
C        0.01484550      -1.77751727      -0.01636693
H        0.67870853      -2.42144646      -0.68295456
H       -0.62264859      -2.45592969       0.64226336
C        1.78714474       0.01002794       0.00389507
H        2.44202412       0.67113390       0.66197326
H        2.45385902      -0.65136977      -0.64189061
C        0.91606151      -0.90478549       0.90901405
