90
Properties=species:S:1:pos:R:3 pbc="F F F"
C        1.42734676       3.63988796      -5.10003499
C        2.02290621       3.11071838      -3.82840221
C        1.25478036       2.29648430      -2.98414541
C        1.79554493       1.79554493      -1.79554493
C        3.10983514       2.10305217      -1.43921713
O        3.62947578       1.60644318      -0.27224112
C        3.87827448       2.91443731      -2.27903884
C        3.34076539       3.41645261      -3.46710297
H        2.14213755       4.25972748      -5.65117318
H        0.55035519       4.25615160      -4.87744773
H        1.13014542       2.81094732      -5.75041808
H        0.22962932       2.05387569      -3.25740807
H        4.54685130       1.92468533      -0.19559276
H        3.94750148       4.04694622      -4.11337665
C        5.23681476       3.24880860      -1.93821021
C        6.37459224       3.52884455      -1.65276624
Br       8.21428220       3.98163900      -1.19122747
C       -5.46686353      -2.77620430      -1.92420189
C       -4.00880586      -2.68596492      -2.26725601
C       -3.15680763      -1.88995777      -1.48864468
C       -1.79554493      -1.79554493      -1.79554493
C       -1.27215837      -2.49638558      -2.88356049
O        0.06337800      -2.39664546      -3.17489261
C       -2.11907764      -3.29105979      -3.66161320
C       -3.47948415      -3.38730162      -3.35753521
H       -6.00370090      -3.42971453      -2.61962277
H       -5.92734833      -1.78420108      -1.97240510
H       -5.59217387      -3.18352723      -0.91580973
H       -3.55994586      -1.34156214      -0.63940509
H        0.23947965      -2.94904656      -3.95756248
H       -4.12967247      -4.00857834      -3.96957354
C       -1.60828175      -4.02561246      -4.78993936
C       -1.18049019      -4.64080032      -5.73491252
Br      -0.48878741      -5.63550706      -7.26285420
C       -2.16504885       2.48597774       5.51624312
C       -2.38552919       2.54344282       4.03305479
C       -1.60217369       1.75315251       3.18008389
C       -1.79554493       1.79554493       1.79554493
C       -2.77436125       2.62797337       1.24976982
O       -2.95527094       2.66129502      -0.10840588
C       -3.55715308       3.41693682       2.09766073
C       -3.36624907       3.37680120       3.48127070
H       -2.84604394       3.15687141       6.05012285
H       -1.14032652       2.78687640       5.75675160
H       -2.33826361       1.46943505       5.88381216
H       -0.83773831       1.10256569       3.60060908
H       -3.67306209       3.29187658      -0.29780928
H       -3.98094228       3.99487873       4.13200334
C       -4.57446118       4.28526901       1.56410338
C       -5.42645672       5.01249721       1.11724910
Br      -6.80406143       6.18836372       0.39472353
C        5.28468461      -3.29239478       1.59019033
C        3.91926483      -2.93972347       2.10303849
C        3.07100739      -2.13301825       1.33138444
C        1.79554493      -1.79554493       1.79554493
C        1.35497614      -2.26158577       3.03554252
O        0.10307608      -1.92479586       3.48028815
C        2.19834626      -3.06629314       3.80711123
C        3.47315586      -3.40506165       3.34610347
H        5.83016917      -3.92287389       2.29999515
H        5.87263643      -2.38330021       1.42801787
H        5.20254360      -3.84199549       0.64697174
H        3.40978864      -1.76710981       0.36401462
H       -0.02376234      -2.33749097       4.35340076
H        4.12137407      -4.03189582       3.95455446
C        1.77178475      -3.56200565       5.09004317
C        1.41453947      -3.97716488       6.16449868
Br       0.83690408      -4.64844224       7.90180235
C       -0.00445707       0.01189536      -1.78238275
H       -0.66409135       0.67374010      -2.43557963
H        0.65740317      -0.63156657      -2.45157240
C       -0.90989263      -0.90692880      -0.91072765
C        0.90977584       0.90977584      -0.90977584
C       -0.00465871       1.77757030       0.00794375
H       -0.66225468       2.44313916      -0.64384735
H        0.64322798       2.43503045       0.67728295
C       -1.78241447       0.00034974      -0.00472694
H       -2.45427497      -0.65498947       0.64260836
H       -2.43311707       0.67328779      -0.65473579
C       -0.91132561       0.90220522       0.91563759
C       -0.01476271      -0.02253852       1.78660255
H       -0.67934791      -0.69751639       2.42135241
H        0.63392994       0.61504881       2.47327442
C        0.01484550      -1.77751727      -0.01636693
H        0.67870853      -2.42144646      -0.68295456
H       -0.62264859      -2.45592969       0.64226336
C        1.78714474       0.01002794       0.00389507
H        2.44202412       0.67113390       0.66197326
H        2.45385902      -0.65136977      -0.64189061
C        0.91606151      -0.90478549       0.90901405
