150
Properties=species:S:1:pos:R:3 pbc="F F F"
C        1.82964384       1.82964384      -1.82964384
C        1.62894626       3.29086535      -1.43906743
C        2.50898076       4.32743933      -2.20566084
C        2.13421494       5.76792941      -1.70144242
C        2.48642346       6.06015937      -0.24280953
C        4.00801376       4.13577968      -1.85657896
O        4.41823396       3.34899620      -1.00881032
N        4.89045339       4.95911497      -2.49678463
C        2.25512569       4.18104215      -3.72869772
C        1.21199438       4.86584574      -4.37775363
C        0.98215768       4.70814165      -5.74819291
C        1.77835247       3.85037908      -6.49873055
C        2.80227130       3.14414365      -5.87887980
C        3.03569953       3.30396794      -4.51014670
H        1.51084745       1.61548064      -2.85176448
H        2.85131240       1.47709605      -1.67713478
H        1.81566177       3.37925385      -0.36117165
H        0.56955952       3.54691586      -1.58239601
H        1.05452325       5.92922581      -1.81669806
H        2.61974059       6.51868793      -2.34095859
H        3.55855069       6.01338566      -0.04046497
H        1.94638633       5.42233263       0.45986008
H        4.63762950       5.45854315      -3.34060911
H        5.87709848       4.80720465      -2.31774100
H        0.54422868       5.53141190      -3.83730674
H        0.17107801       5.25217354      -6.22696988
H        1.59268170       3.72390405      -7.56207958
H        3.41656593       2.45887347      -6.45816376
H        3.83472360       2.71302819      -4.06360214
C        2.09041260       7.40724539       0.07677559
C        1.75875350       8.53542994       0.34442813
Br       1.22248879      10.35960892       0.77719965
C       -1.82964384      -1.82964384      -1.82964384
C       -1.56714512      -1.49645746      -3.29527647
C       -2.34632379      -2.35670800      -4.33904914
C       -1.98157485      -1.84318766      -5.77882425
C       -0.52823732      -2.06122814      -6.19992690
C       -1.87808436      -3.83448249      -4.28780555
O       -0.94567726      -4.23350975      -3.59685347
N       -2.51509360      -4.70260070      -5.12865869
C       -3.86788001      -2.23105538      -4.06593017
C       -4.63979115      -1.19461934      -4.62118326
C       -6.00701305      -1.08199170      -4.34948749
C       -6.63136674      -1.99210511      -3.50399025
C       -5.88822694      -3.01318739      -2.92388043
C       -4.52260902      -3.12936688      -3.19783826
H       -2.85244665      -1.60592330      -1.51972263
H       -1.57849242      -2.85910594      -1.56794488
H       -0.48863290      -1.59348249      -3.47397189
H       -1.80446712      -0.43563120      -3.45877307
H       -2.18517520      -0.76674755      -5.84852437
H       -2.64052595      -2.32165680      -6.51720436
H       -0.24731463      -3.11535818      -6.24972851
H        0.18102025      -1.51570069      -5.57417844
H       -3.41043879      -4.48020783      -5.54613513
H       -2.25537586      -5.68095948      -5.06570879
H       -4.20057314      -0.44193758      -5.27043659
H       -6.58234079      -0.27331750      -4.79456314
H       -7.69242598      -1.89771075      -3.28852860
H       -6.36835960      -3.71705736      -2.24818619
H       -3.97660785      -3.93184502      -2.70290106
C       -0.34148233      -1.54732300      -7.53207707
C       -0.18507504      -1.11692743      -8.64775284
Br       0.06782234      -0.42101421     -10.45170619
C       -1.82964384       1.82964384       1.82964384
C       -2.93148315       0.97645275       2.45094315
C       -3.89018663       1.71510573       3.43678857
C       -4.97404306       0.69283666       3.93670704
C       -4.44189014      -0.45170255       4.79920477
C       -3.12377902       2.17062763       4.70596574
O       -1.95332579       1.88425787       4.93845682
N       -3.84519518       2.86802310       5.63313471
C       -4.54476470       2.91549953       2.70460133
C       -5.72639209       2.77440042       1.95480123
C       -6.29408164       3.86158680       1.28282380
C       -5.68589481       5.11091075       1.33065654
C       -4.50550313       5.27395255       2.04583907
C       -3.93930599       4.18921788       2.72129030
H       -2.21607848       2.60129155       1.16072254
H       -1.16102967       2.27746297       2.56705059
H       -2.45339363       0.13467202       2.96802162
H       -3.52636345       0.53224462       1.64026333
H       -5.48277162       0.24394203       3.07373347
H       -5.75234457       1.22836928       4.49867327
H       -3.99107491      -0.11315222       5.73447863
H       -3.74514349      -1.09871453       4.26242991
H       -4.72673581       3.30896172       5.40108422
H       -3.34257191       3.21791452       6.44155770
H       -6.23245982       1.81704972       1.86343777
H       -7.21059529       3.72678418       0.71284196
H       -6.12511768       5.95231982       0.80122783
H       -4.01673004       6.24500685       2.07186626
H       -3.00198881       4.35935986       3.25000525
C       -5.53899016      -1.30158745       5.18347970
C       -6.45781142      -2.01336606       5.50530995
Br      -7.94346769      -3.16425186       6.02568225
C        1.82964384      -1.82964384       1.82964384
C        3.28889897      -1.64663785       1.42334222
C        4.33576296      -2.43409262       2.27222536
C        5.76556056      -2.15552760       1.68249860
C        6.25712408      -0.71432050       1.81794777
C        4.36987678      -1.90182848       3.72866714
O        3.73740741      -0.92367569       4.11495737
N        5.22057690      -2.53806525       4.58771084
C        3.99310304      -3.94602481       2.22573771
C        4.46871601      -4.78499359       1.20188414
C        4.13459474      -6.14239251       1.16150499
C        3.30450977      -6.68957039       2.13338194
C        2.80218764      -5.87886934       3.14423777
C        3.13865596      -4.52302098       3.18813722
H        1.46704986      -2.84628777       1.66475494
H        1.62465169      -1.52374578       2.85714576
H        3.51726688      -0.57395053       1.46486986
H        3.39507118      -1.93571490       0.36808531
H        5.77885076      -2.40745625       0.61414011
H        6.49580224      -2.82564453       2.15794034
H        6.36540077      -0.39145031       2.85555025
H        5.63846624      -0.00181969       1.26857295
H        5.58947439      -3.45963349       4.38767387
H        5.21206119      -2.23458075       5.55540219
H        5.10204765      -4.40724370       0.40365596
H        4.51865171      -6.77061651       0.36095321
H        3.04030095      -7.74309855       2.09526584
H        2.13856993      -6.29835549       3.89667774
H        2.70331387      -3.92212390       3.98591616
C        7.57193762      -0.60866710       1.24027768
C        8.67309395      -0.52018238       0.75647898
Br      10.45357061      -0.37711007      -0.02578260
C       -0.00445707       0.01189536      -1.78238275
H       -0.66409135       0.67374010      -2.43557963
H        0.65740317      -0.63156657      -2.45157240
C       -0.90989263      -0.90692880      -0.91072765
C        0.90977584       0.90977584      -0.90977584
C       -0.00465871       1.77757030       0.00794375
H       -0.66225468       2.44313916      -0.64384735
H        0.64322798       2.43503045       0.67728295
C       -1.78241447       0.00034974      -0.00472694
H       -2.45427497      -0.65498947       0.64260836
H       -2.43311707       0.67328779      -0.65473579
C       -0.91132561       0.90220522       0.91563759
C       -0.01476271      -0.02253852       1.78660255
H       -0.67934791      -0.69751639       2.42135241
H        0.63392994       0.61504881       2.47327442
C        0.01484550      -1.77751727      -0.01636693
H        0.67870853      -2.42144646      -0.68295456
H       -0.62264859      -2.45592969       0.64226336
C        1.78714474       0.01002794       0.00389507
H        2.44202412       0.67113390       0.66197326
H        2.45385902      -0.65136977      -0.64189061
C        0.91606151      -0.90478549       0.90901405
