121
Properties=species:S:1:pos:R:3 pbc="F F F"
C        0.00000000       0.00000000       0.00000000
C        0.91973982       0.91973982      -0.91973982
C        0.71904224       2.38096132      -0.52916341
C        1.59907674       3.41753531      -1.29575682
C        1.22431092       4.85802538      -0.79153839
C        1.57651943       5.15025535       0.66709449
Br       1.03899665       6.97871384       1.10088129
C        3.09810974       3.22587565      -0.94667494
O        3.50832994       2.43909217      -0.09890629
N        3.98054936       4.04921094      -1.58688061
C        1.34522166       3.27113813      -2.81879369
C        0.30209036       3.95594172      -3.46784960
C        0.07225366       3.79823763      -4.83828889
C        0.86844845       2.94047505      -5.58882652
C        1.89236728       2.23423963      -4.96897578
C        2.12579551       2.39406392      -3.60024267
H        0.60094343       0.70557661      -1.94186046
H        1.94140838       0.56719203      -0.76723075
H        0.90575775       2.46934983       0.54873238
H       -0.34034450       2.63701183      -0.67249199
H        0.14461923       5.01932178      -0.90679404
H        1.70983657       5.60878391      -1.43105456
H        2.64864666       5.10348164       0.86943905
H        1.03648230       4.51242860       1.36976410
H        3.72772547       4.54863912      -2.43070509
H        4.96719445       3.89730063      -1.40783697
H       -0.36567535       4.62150787      -2.92740271
H       -0.73882601       4.34226952      -5.31706585
H        0.68277768       2.81400003      -6.65217555
H        2.50666191       1.54896944      -5.54825973
H        2.92481957       1.80312416      -3.15369812
C       -0.91973982      -0.91973982      -0.91973982
C       -2.22828619      -0.19077400      -1.21010678
C       -3.22454333      -0.93130899      -2.15651654
C       -4.51942785      -0.05273625      -2.30171059
C       -4.32380459       1.28306661      -3.01894231
Br      -6.03643524       2.22136302      -3.10175699
C       -2.63415230      -1.05069939      -3.58580863
O       -1.57876706      -0.53153591      -3.93602543
N       -3.39533668      -1.71809185      -4.50321239
C       -3.55389533      -2.32358431      -1.55767385
C       -4.59284159      -2.50581509      -0.62722500
C       -4.86509886      -3.76367928      -0.08000202
C       -4.09559712      -4.86526362      -0.43688928
C       -3.04849573      -4.70975882      -1.33732813
C       -2.77793646      -3.45402536      -1.88814028
H       -1.06316425      -1.83822537      -0.34699088
H       -0.33212298      -1.12805057      -1.81565760
H       -1.97941439       0.78945823      -1.63641903
H       -2.73072858       0.01607701      -0.25450775
H       -4.92953841       0.16603847      -1.30723511
H       -5.29584188      -0.62703198      -2.82680118
H       -3.99920226       1.17224875      -4.05573575
H       -3.64778680       1.95524783      -2.48660784
H       -4.14664096      -2.33677954      -4.22364918
H       -2.99632001      -1.84972911      -5.42628294
H       -5.21182372      -1.67686492      -0.29454660
H       -5.67676034      -3.87861949       0.63487048
H       -4.30453188      -5.84013767      -0.00428371
H       -2.43280916      -5.56481835      -1.60626358
H       -1.93350886      -3.37596109      -2.57217191
C       -0.91973982       0.91973982       0.91973982
C       -1.50220081       0.07671749       2.05024867
C       -2.38298456       0.84287804       3.08650627
C       -2.92319643      -0.18994077       4.14061904
C       -1.85817094      -0.82981004       5.03131939
Br      -2.72141767      -2.07284859       6.26826013
C       -1.52547848       1.85521457       3.88996728
O       -0.30584380       1.94904476       3.79143985
N       -2.18980557       2.62142809       4.80540726
C       -3.54694064       1.54681786       2.34139498
C       -4.76199946       0.89127346       2.07260875
C       -5.79528421       1.53198295       1.38151301
C       -5.63278529       2.83637656       0.92858817
C       -4.43427216       3.50046794       1.16084258
C       -3.40231648       2.86277171       1.85501391
H       -1.68403169       1.31613933       0.24820949
H       -0.27661607       1.72901361       1.27020147
H       -0.66765848      -0.41117780       2.56989452
H       -2.09658251      -0.73536809       1.60794490
H       -3.44975434      -1.00264673       3.62362744
H       -3.67453595       0.29600956       4.77912953
H       -1.33147172      -0.10848150       5.65969903
H       -1.13924044      -1.42912947       4.46903584
H       -3.19513748       2.73839152       4.77354069
H       -1.64977167       3.32437657       5.29818382
H       -4.93624533      -0.13561987       2.38260978
H       -6.72672078       1.00407442       1.18971415
H       -6.43460184       3.32923499       0.38511643
H       -4.29595174       4.51455223       0.79338711
H       -2.47320001       3.41460751       1.99383433
C        0.91973982      -0.91973982       0.91973982
C        1.98024095      -1.59426161       0.05466442
C        3.01062121      -2.48782391       0.81392375
C        3.98768227      -3.12524032      -0.23904790
C        4.89454510      -2.13502000      -0.96988482
Br       6.02901368      -3.11325097      -2.22543545
C        3.90061523      -1.62440094       1.74564416
O        3.86297422      -0.39840786       1.78494632
N        4.82041280      -2.29615586       2.50007226
C        2.24756138      -3.58083095       1.60676116
C        1.89181113      -4.81038883       1.02368171
C        1.18561012      -5.77853245       1.74463759
C        0.80411773      -5.53449842       3.05913387
C        1.12306833      -4.31929312       3.65322123
C        1.83242232      -3.35248532       2.93519446
H        0.23365293      -1.63167900       1.38304857
H        1.33807607      -0.25770902       1.68004607
H        2.51359987      -0.80911056      -0.49633524
H        1.47237493      -2.20335639      -0.70657199
H        3.40838665      -3.66308675      -1.00073835
H        4.61363739      -3.88335095       0.25268669
H        5.58057782      -1.60661376      -0.30450233
H        4.33768475      -1.41814296      -1.57668091
H        4.74798634      -3.29232824       2.66675510
H        5.37087116      -1.74874703       3.15271387
H        2.14354814      -5.04647356      -0.00678646
H        0.92589003      -6.72293952       1.27167981
H        0.24873181      -6.28561835       3.61460310
H        0.81173304      -4.11687095       4.67528709
H        2.04032975      -2.40673531       3.43457679
