94
Properties=species:S:1:pos:R:3 pbc="F F F"
C        2.26276482      -0.72641769      -3.65987998
O        1.40633829       0.41530350      -3.72188102
C        2.00982852       1.50680570      -3.15084397
C        1.79682997       1.79682997      -1.79682997
C        2.38415326       2.92490832      -1.21391962
C        3.18340311       3.78453722      -1.97814845
C        3.78063029       5.01346674      -1.35818043
C        3.35456479       3.51941956      -3.34291647
C        2.76721322       2.39086083      -3.92740613
Br       3.01243670       2.13329466      -5.79244175
H        1.63765681      -1.61979281      -3.76068857
H        2.80632667      -0.79986234      -2.71026607
H        2.97315049      -0.71515311      -4.49284171
H        2.21339799       3.14275982      -0.16131230
H        4.67465569       5.33320686      -1.90300220
H        4.08287258       4.81742215      -0.32438763
H        3.05151897       5.82894828      -1.36773248
H        3.94137606       4.20237210      -3.95403143
C       -2.03259440      -3.80743793       0.64380522
O       -2.87243057      -2.78199668       0.11090444
C       -2.72542347      -2.69208943      -1.24996528
C       -1.79682997      -1.79682997      -1.79682997
C       -1.66181925      -1.67699444      -3.18416751
C       -2.46005579      -2.44187289      -4.04416010
C       -2.33824353      -2.28286760      -5.53116633
C       -3.42171854      -3.29986545      -3.49531682
C       -3.55782882      -3.42055725      -2.10709410
Br      -4.91743895      -4.57118044      -1.44955373
H       -1.88687798      -3.60091754       1.70924295
H       -1.04518313      -3.83930225       0.16775498
H       -2.51912563      -4.78390856       0.55219510
H       -0.93792923      -0.97899146      -3.60054941
H       -2.67377115      -3.18573186      -6.05136175
H       -1.29570559      -2.11118826      -5.81778851
H       -2.94426832      -1.43648886      -5.86744255
H       -4.07358669      -3.86927367      -4.15491924
C        0.46954703       4.01007355       1.65570059
O       -0.76774216       3.80372829       0.97205237
C       -1.68074610       3.19302164       1.79371044
C       -1.79682997       1.79682997       1.79682997
C       -2.74605421       1.16753568       2.60939131
C       -3.59951329       1.92481665       3.42175884
C       -4.64113066       1.24789225       4.26325455
C       -3.51469010       3.32239361       3.37981711
C       -2.56522580       3.95329435       2.56696003
Br      -2.55068160       5.85162374       2.53586777
H        1.25321804       4.13120477       0.90056584
H        0.74703240       3.16569121       2.29807159
H        0.42766677       4.92871595       2.24978991
H       -2.82947608       0.08235111       2.60564292
H       -4.92110444       1.87141548       5.11834483
H       -4.26152374       0.30149036       4.66166825
H       -5.53462967       1.04947840       3.66409166
H       -4.19937146       3.92096480       3.97744333
C        4.30002401      -0.17359081       0.72261229
O        3.51145949      -0.11946201       1.91260131
C        3.05186420      -1.36764539       2.24796860
C        1.79682997      -1.79682997       1.79682997
C        1.30746172      -3.05642354       2.15909594
C        2.06031184      -3.90005458       2.98572236
C        1.51542545      -5.23454489       3.40230712
C        3.29268896      -3.44880236       3.47540949
C        3.78341475      -2.18841660       3.11364883
Br       5.44014717      -1.63798720       3.86003875
H        4.32125778       0.83166228       0.28895707
H        3.88904836      -0.85744295      -0.02976092
H        5.32929489      -0.46085562       0.96068858
H        0.33140462      -3.38190059       1.80416489
H        2.32415663      -5.92532762       3.66138051
H        0.94633041      -5.69184066       2.58651129
H        0.86092953      -5.11641025       4.27085995
H        3.86741639      -4.08059597       4.14976723
C       -0.00445707       0.01189536      -1.78238275
H       -0.66409135       0.67374010      -2.43557963
H        0.65740317      -0.63156657      -2.45157240
C       -0.90989263      -0.90692880      -0.91072765
C        0.90977584       0.90977584      -0.90977584
C       -0.00465871       1.77757030       0.00794375
H       -0.66225468       2.44313916      -0.64384735
H        0.64322798       2.43503045       0.67728295
C       -1.78241447       0.00034974      -0.00472694
H       -2.45427497      -0.65498947       0.64260836
H       -2.43311707       0.67328779      -0.65473579
C       -0.91132561       0.90220522       0.91563759
C       -0.01476271      -0.02253852       1.78660255
H       -0.67934791      -0.69751639       2.42135241
H        0.63392994       0.61504881       2.47327442
C        0.01484550      -1.77751727      -0.01636693
H        0.67870853      -2.42144646      -0.68295456
H       -0.62264859      -2.45592969       0.64226336
C        1.78714474       0.01002794       0.00389507
H        2.44202412       0.67113390       0.66197326
H        2.45385902      -0.65136977      -0.64189061
C        0.91606151      -0.90478549       0.90901405
