90
Properties=species:S:1:pos:R:3 pbc="F F F"
C        1.78384936       1.78384936      -1.78384936
S        3.13809723       1.16975592      -2.60823162
C        3.48479881       2.69856573      -3.26607364
Br       4.93936761       2.98427267      -4.41657945
C        2.57587215       3.66005988      -2.89270311
O        2.65615359       4.93894582      -3.34909822
C        1.36923699       5.52098331      -3.56159343
C        0.77133559       6.08345451      -2.27829318
C        0.94635923       5.16754386      -1.07396436
O        0.59623069       3.81544150      -1.37142098
C        1.60536935       3.13367313      -1.97694819
H        1.49758862       6.33827648      -4.28040172
H        0.68893829       4.80396433      -4.04164968
H       -0.29470287       6.27311138      -2.45190551
H        1.23340692       7.04978528      -2.04420265
H        0.27900701       5.50561017      -0.27283857
H        1.96354309       5.23002471      -0.66281277
C       -1.78384936      -1.78384936      -1.78384936
S       -3.31013275      -1.27362192      -2.33233010
C       -3.55248909      -2.74094894      -3.15600015
Br      -5.11075529      -3.08699549      -4.14246894
C       -2.48473923      -3.59969016      -3.04420575
O       -2.46802346      -4.80856605      -3.66760812
C       -1.16242900      -5.16595952      -4.12342521
C       -0.31822595      -5.79340748      -3.02144984
C       -0.43094898      -5.07239167      -1.68452680
O       -0.30159529      -3.65713072      -1.82436715
C       -1.46600983      -3.05806544      -2.19191540
H       -1.28937529      -5.89567007      -4.93122146
H       -0.65526820      -4.30285403      -4.57643007
H        0.72663843      -5.80275649      -3.35419596
H       -0.61542482      -6.83835745      -2.87361258
H        0.38300412      -5.40855982      -1.03190005
H       -1.36148754      -5.33341327      -1.16147976
C       -1.78384936       1.78384936       1.78384936
S       -1.36004617       3.38396784       2.17207076
C       -2.77048113       3.57771941       3.10123764
Br      -3.17531406       5.18620877       3.97869689
C       -3.56969513       2.45911349       3.09982651
O       -4.76363442       2.42963688       3.75092633
C       -5.74143054       1.65407290       3.05631029
C       -5.61443489       0.16532375       3.35332464
C       -4.17583728      -0.33500704       3.34703721
O       -3.45133953       0.12578108       2.20597255
C       -2.96287806       1.38468811       2.36842451
H       -6.72644398       1.99913287       3.39068996
H       -5.70503999       1.85320197       1.97631033
H       -6.20436003      -0.38353527       2.60948926
H       -6.05069150      -0.05750422       4.33420757
H       -4.18271104      -1.43028721       3.30503193
H       -3.65290224      -0.07422854       4.27770687
C        1.78384936      -1.78384936       1.78384936
S        1.30493660      -3.34106633       2.27008183
C        2.74884043      -3.56028454       3.14031320
Br       3.12039064      -5.14374403       4.07608506
C        3.59873640      -2.48379708       3.04610166
O        4.82342204      -2.48269866       3.63807693
C        5.80113376      -1.78987317       2.86080680
C        5.75911450      -0.28435032       3.08961845
C        4.34708615       0.28552958       3.12631088
O        3.54627919      -0.19209281       2.04472116
C        3.00776282      -1.41631940       2.29190844
H        6.78413088      -2.16702352       3.16511242
H        5.70215355      -2.03753824       1.79486051
H        6.33676572       0.19912809       2.29267638
H        6.25325253      -0.03744062       4.03670169
H        4.40338481       1.37594615       3.03001710
H        3.85904055       0.09494207       4.09228209
C       -0.00445707       0.01189536      -1.78238275
H       -0.66409135       0.67374010      -2.43557963
H        0.65740317      -0.63156657      -2.45157240
C       -0.90989263      -0.90692880      -0.91072765
C        0.90977584       0.90977584      -0.90977584
C       -0.00465871       1.77757030       0.00794375
H       -0.66225468       2.44313916      -0.64384735
H        0.64322798       2.43503045       0.67728295
C       -1.78241447       0.00034974      -0.00472694
H       -2.45427497      -0.65498947       0.64260836
H       -2.43311707       0.67328779      -0.65473579
C       -0.91132561       0.90220522       0.91563759
C       -0.01476271      -0.02253852       1.78660255
H       -0.67934791      -0.69751639       2.42135241
H        0.63392994       0.61504881       2.47327442
C        0.01484550      -1.77751727      -0.01636693
H        0.67870853      -2.42144646      -0.68295456
H       -0.62264859      -2.45592969       0.64226336
C        1.78714474       0.01002794       0.00389507
H        2.44202412       0.67113390       0.66197326
H        2.45385902      -0.65136977      -0.64189061
C        0.91606151      -0.90478549       0.90901405
