90
Properties=species:S:1:pos:R:3 pbc="F F F"
C        1.83319607       1.83319607      -1.83319607
C        3.23697730       1.85221642      -1.23672228
C        4.15390563       2.82185427      -1.96346742
N        1.81005820       1.23647621      -3.14003993
C        1.89995148       1.87025505      -4.33385535
N        1.92300933       3.12841270      -4.57785348
H        1.36006459       2.81975605      -1.80889911
H        3.67685810       0.84541513      -1.25743827
H        3.17796890       2.13699015      -0.17732373
H        3.75219269       3.83834972      -1.97604986
H        4.38300614       2.49996726      -2.98177019
H        1.78194450       0.22167935      -3.14101698
H        1.96625150       1.16383494      -5.17942874
H        1.82417455       3.68068432      -3.72816195
C        5.41803752       2.89410745      -1.27764670
C        6.47674797       2.95461948      -0.70327185
Br       8.18859323       3.05246233       0.22544370
C       -1.83319607      -1.83319607      -1.83319607
C       -0.92973963      -2.78304168      -2.61313470
C       -1.70535547      -3.60449498      -3.62937688
N       -2.71149755      -2.53589187      -0.93918492
C       -3.98144268      -2.93883209      -1.18378711
N       -4.71750197      -2.70497396      -2.20679957
H       -2.36422650      -1.13590601      -2.48858724
H       -0.39649336      -3.45595109      -1.92726704
H       -0.15557186      -2.20294563      -3.13376529
H       -2.26052502      -2.97577117      -4.33029610
H       -2.38018948      -4.32406547      -3.16048864
H       -2.29067563      -2.80006346      -0.05390174
H       -4.39105759      -3.55431455      -0.36414304
H       -4.24831296      -2.10349524      -2.88121263
C       -0.78719000      -4.38125818      -4.42134348
C       -0.01822643      -5.03179737      -5.08461552
Br       1.22512264      -6.08366420      -6.15707029
C       -1.83319607       1.83319607       1.83319607
C       -2.68650985       2.71363706       0.92576909
C       -3.49484090       3.73175083       1.71263560
N       -2.63204278       0.93463942       2.61989214
C       -3.09297175       1.13295893       3.87813120
N       -2.84662701       2.09976943       4.68287907
H       -1.13298806       2.41814981       2.43758187
H       -3.36393016       2.09702995       0.31875138
H       -2.03596584       3.24134000       0.21497695
H       -2.86190819       4.36470038       2.33998371
H       -4.27597242       3.26894373       2.31982744
H       -2.91915613       0.08985623       2.13562847
H       -3.77413231       0.32884961       4.20653325
H       -2.18386394       2.76310839       4.28604850
C       -4.17411869       4.61510493       0.80056805
C       -4.74301384       5.35491399       0.03671148
Br      -5.66286919       6.55112267      -1.19838000
C        1.83319607      -1.83319607       1.83319607
C        0.98535012      -2.34897866       2.99158722
C        1.81258364      -3.12003115       4.00661254
N        2.29901907      -2.89850356       0.98905171
C        3.48290191      -3.55191120       1.06924878
N        4.48474759      -3.31240876       1.83211916
H        2.64046861      -1.17640650       2.17184463
H        0.17314450      -2.98819895       2.61836804
H        0.49941482      -1.50047300       3.49239496
H        2.64053995      -2.52518289       4.40086944
H        2.18972764      -4.06520355       3.60981240
H        1.62438694      -3.21884709       0.30140679
H        3.54111159      -4.40148104       0.36692255
H        4.33067035      -2.49000584       2.41234463
C        0.98834815      -3.46581991       5.13562361
C        0.29805093      -3.75541799       6.08117039
Br      -0.81810129      -4.22367360       7.61003955
C       -0.00445707       0.01189536      -1.78238275
H       -0.66409135       0.67374010      -2.43557963
H        0.65740317      -0.63156657      -2.45157240
C       -0.90989263      -0.90692880      -0.91072765
C        0.90977584       0.90977584      -0.90977584
C       -0.00465871       1.77757030       0.00794375
H       -0.66225468       2.44313916      -0.64384735
H        0.64322798       2.43503045       0.67728295
C       -1.78241447       0.00034974      -0.00472694
H       -2.45427497      -0.65498947       0.64260836
H       -2.43311707       0.67328779      -0.65473579
C       -0.91132561       0.90220522       0.91563759
C       -0.01476271      -0.02253852       1.78660255
H       -0.67934791      -0.69751639       2.42135241
H        0.63392994       0.61504881       2.47327442
C        0.01484550      -1.77751727      -0.01636693
H        0.67870853      -2.42144646      -0.68295456
H       -0.62264859      -2.45592969       0.64226336
C        1.78714474       0.01002794       0.00389507
H        2.44202412       0.67113390       0.66197326
H        2.45385902      -0.65136977      -0.64189061
C        0.91606151      -0.90478549       0.90901405
