162
Properties=species:S:1:pos:R:3 pbc="F F F"
C        1.82498993       1.82498993      -1.82498993
C        2.73855317       2.67341640      -0.95314644
C        3.68389689       3.54721135      -1.78991963
H        4.24789856       2.91505769      -2.48599554
C        2.95820908       4.54207811      -2.54407487
C        2.36008805       5.36206501      -3.16565589
C        1.67259545       6.30456810      -3.88012728
C        1.07447998       7.12454716      -4.50171105
C        0.34879830       8.11942864      -5.25585952
H       -0.60762210       8.31299226      -4.75346860
N        1.12434057       9.34288156      -5.30194819
C        0.55667138      10.57053076      -5.36753162
N        1.15236949      11.64606155      -5.73230069
C        0.07107753       7.64821335      -6.69227632
C       -0.84569221       6.43480555      -6.73396019
N        4.60226912       4.24749286      -0.91485544
C        5.72273369       3.73825605      -0.34144368
N        6.30002510       2.61335221      -0.55240842
H        1.13977436       2.42671451      -2.42758288
H        2.38846755       1.15010352      -2.47497359
H        3.33009469       2.01501193      -0.30293755
H        2.13727372       3.30036152      -0.27982796
H        2.06541878       9.24651645      -5.66195491
H       -0.50772518      10.60102125      -5.07402953
H        2.12527647      11.44957146      -5.97108005
H        1.01574947       7.42002994      -7.20581157
H       -0.38889366       8.46922174      -7.25905037
H       -1.81525158       6.63573057      -6.27061667
H       -0.39539887       5.55077754      -6.27521080
H        4.23851538       5.10235646      -0.50354855
H        6.16763353       4.43313195       0.39176772
H        5.81515137       2.07575787      -1.26453388
C       -1.11248808       6.07619213      -8.10283432
C       -1.33592961       5.77585340      -9.24926640
Br      -1.69721568       5.29023106     -11.10295012
C       -1.82498993      -1.82498993      -1.82498993
C       -1.84523231      -1.27613287      -3.24375084
C       -2.68015228      -2.15283054      -4.18804505
H       -2.31337414      -3.18543642      -4.15014123
C       -4.07822273      -2.13912607      -3.82701325
C       -5.23053281      -2.12782645      -3.52944970
C       -6.55502241      -2.11485156      -3.18741687
C       -7.70732560      -2.10355918      -2.88985342
C       -9.10540325      -2.08984755      -2.52883565
H       -9.31694431      -1.16517198      -1.97672248
N       -9.90984219      -2.12548843      -3.73383970
C      -11.13003743      -1.54465693      -3.82003940
N      -12.01546710      -1.80467153      -4.71059311
C       -9.47282664      -3.29300795      -1.64573260
C       -8.76036786      -3.26082176      -0.30188390
N       -2.57447047      -1.64802027      -5.54212668
C       -1.54597981      -1.85157835      -6.40487525
N       -0.53817535      -2.63564563      -6.29196476
H       -2.81334462      -1.82249180      -1.35823532
H       -1.40123267      -2.83191529      -1.78039671
H       -0.81556062      -1.21208498      -3.62039857
H       -2.22957195      -0.24645689      -3.24143437
H       -9.71665502      -2.89559676      -4.36163836
H      -11.33681598      -0.79155257      -3.03895706
H      -11.67263502      -2.51916557      -5.35412739
H       -9.24131396      -4.23180101      -2.16847601
H      -10.55876188      -3.30084869      -1.47976788
H       -9.00031709      -2.36017193       0.26939335
H       -7.67580635      -3.35700992      -0.39777321
H       -3.19987130      -0.87907761      -5.76547148
H       -1.64458411      -1.24357253      -7.32084111
H       -0.57220666      -3.16015733      -5.42307913
C       -9.18622791      -4.37926129       0.49895082
C       -9.54288570      -5.31595439       1.16964990
Br     -10.11957117      -6.83050792       2.25411359
C       -1.82498993       1.82498993       1.82498993
C       -3.19613490       1.98375106       1.18523005
C       -4.14290020       2.82372607       2.05440160
H       -4.20387848       2.38684975       3.05822357
C       -3.68900643       4.19003902       2.16531661
C       -3.31490437       5.31617467       2.25672991
C       -2.88489753       6.61057746       2.36181584
C       -2.51079655       7.73670578       2.45323586
C       -2.05691575       9.10302739       2.56414332
H       -1.42691552       9.33582782       1.69609542
N       -3.20478753       9.98770834       2.57667446
C       -3.16715829      11.24709296       2.08048251
N       -4.01278460      12.17477165       2.34317549
C       -1.23985731       9.32470187       3.84700801
C        0.05209978       8.52135678       3.85381652
N       -5.46127334       2.84957803       1.45376606
C       -6.40334178       1.87436727       1.52472437
N       -6.41475807       0.81081982       2.24020784
H       -1.29412546       2.77522558       1.92472072
H       -1.88128297       1.33264920       2.79961250
H       -3.63531686       0.99038495       1.02234237
H       -3.09416500       2.43502015       0.18827805
H       -3.89778112       9.78895772       3.28715129
H       -2.32193223      11.44722539       1.39816799
H       -4.72746589      11.83195309       2.98650900
H       -1.84298067       9.06897226       4.72963805
H       -1.00253732      10.39294996       3.94389116
H        0.70134890       8.77944334       3.01300122
H       -0.12286028       7.44247827       3.86525092
H       -5.58645150       3.53948529       0.71848359
H       -7.26462661       2.07897370       0.86539745
H       -5.58544945       0.74717962       2.82281406
C        0.79728324       8.81276555       5.05105606
C        1.42137439       9.05682039       6.05374419
Br       2.43047700       9.45143642       7.67500608
C        1.82498993      -1.82498993       1.82498993
C        2.10025267      -1.12007652       3.14478682
C        2.94492261      -1.98317819       4.09292707
H        2.45696839      -2.95436445       4.23761895
C        4.27359315      -2.20007206       3.57069684
C        5.36870385      -2.37883454       3.14027056
C        6.62744480      -2.58432167       2.64552437
C        7.72254788      -2.76309034       2.21509998
C        9.05122823      -2.97997649       1.69288174
H        9.29447371      -2.16384570       1.00051935
N       10.00028411      -2.98068741       2.78819881
C       11.28100335      -2.56287529       2.65085512
N       12.24101273      -2.83236869       3.45735031
C        9.15199973      -4.31740896       0.94215851
C        8.27438977      -4.34885166      -0.30016790
N        3.08240289      -1.31233497       5.36987956
C        2.16228881      -1.27258087       6.36756374
N        1.06293727      -1.92202581       6.48082265
H        2.73503132      -2.01038696       1.24865347
H        1.28311123      -2.76404936       1.96638407
H        1.14532393      -0.87430471       3.62841554
H        2.59973859      -0.15888290       2.95884172
H        9.80352089      -3.63826549       3.53210375
H       11.46854807      -1.94196213       1.75681541
H       11.90570108      -3.41327693       4.22694998
H        8.88349314      -5.14821795       1.60987989
H       10.19721449      -4.49054270       0.65162125
H        8.54017356      -3.56243785      -1.01151575
H        7.20882655      -4.28653318      -0.06477026
H        3.81855799      -0.61337694       5.41248545
H        2.45412685      -0.57939860       7.17547231
H        0.91778247      -2.54530705       5.69235359
C        8.45371166      -5.60105586      -0.98822915
C        8.60389375      -6.64977689      -1.56448045
Br       8.84672548      -8.34547008      -2.49623006
C       -0.00445707       0.01189536      -1.78238275
H       -0.66409135       0.67374010      -2.43557963
H        0.65740317      -0.63156657      -2.45157240
C       -0.90989263      -0.90692880      -0.91072765
C        0.90977584       0.90977584      -0.90977584
C       -0.00465871       1.77757030       0.00794375
H       -0.66225468       2.44313916      -0.64384735
H        0.64322798       2.43503045       0.67728295
C       -1.78241447       0.00034974      -0.00472694
H       -2.45427497      -0.65498947       0.64260836
H       -2.43311707       0.67328779      -0.65473579
C       -0.91132561       0.90220522       0.91563759
C       -0.01476271      -0.02253852       1.78660255
H       -0.67934791      -0.69751639       2.42135241
H        0.63392994       0.61504881       2.47327442
C        0.01484550      -1.77751727      -0.01636693
H        0.67870853      -2.42144646      -0.68295456
H       -0.62264859      -2.45592969       0.64226336
C        1.78714474       0.01002794       0.00389507
H        2.44202412       0.67113390       0.66197326
H        2.45385902      -0.65136977      -0.64189061
C        0.91606151      -0.90478549       0.90901405
