146
Properties=species:S:1:pos:R:3 pbc="F F F"
N        4.72301772       5.04134640      -7.35966117
C        5.62212335       4.23636366      -7.79749868
N        5.78224216       2.94613606      -7.42233689
C        5.10531369       2.36168998      -6.28606895
H        5.19905494       2.99846189      -5.39970508
C        3.65000920       2.02538912      -6.62684927
C        2.83940968       1.27720868      -5.55978733
C        2.79423598       1.97384472      -4.19896390
C        1.96703846       1.15725641      -3.19721304
C        1.83298418       1.83298418      -1.83298418
H        1.30398062       2.78798395      -1.89795143
N        3.10033274       1.94041701      -1.16353192
C        3.87423121       3.05086049      -1.06638937
N        3.73776441       4.18271968      -1.64810537
H        4.82560124       5.95443529      -7.81802605
H        6.35533661       4.56058781      -8.55563418
H        6.66913046       2.50258374      -7.63348399
H        3.61701132       1.43244957      -7.55148970
H        3.11488647       2.95621784      -6.85739832
H        3.22534659       0.25892991      -5.44177733
H        1.81362720       1.16678317      -5.93512029
H        2.36177000       2.97477845      -4.31061424
H        3.81073756       2.09265966      -3.81316107
H        2.42616466       0.16534606      -3.08464653
H        0.96687418       0.99025436      -3.61870906
H        3.31071996       1.16423528      -0.54489090
H        4.73289514       2.90150481      -0.38980768
H        2.91922851       4.19732401      -2.25383096
C        5.84165268       1.16151222      -5.98444297
C        6.45833658       0.15636335      -5.73183121
Br       7.45546230      -1.46887737      -5.32337937
N       -4.39004339      -5.49033424      -7.24364766
C       -5.06148020      -4.65003272      -7.94447276
N       -5.04883948      -3.30499418      -7.79688145
C       -4.45558040      -2.63844853      -6.65904369
H       -4.78781206      -3.09097633      -5.71843352
C       -2.92993615      -2.58433951      -6.78797193
C       -2.16792210      -1.79003772      -5.71844588
C       -2.44511962      -2.23901513      -4.28290986
C       -1.64546158      -1.39187163      -3.28417471
C       -1.83298418      -1.83298418      -1.83298418
H       -1.47393720      -2.85209228      -1.66388653
N       -3.18429357      -1.63489036      -1.38509774
C       -4.14480935      -2.58542243      -1.26124928
N       -4.12260148      -3.80859118      -1.63739680
H       -4.58083098      -6.44387915      -7.57335245
H       -5.72008344      -4.98930554      -8.76216963
H       -5.80444620      -2.77912294      -8.22162906
H       -2.65882234      -2.17219060      -7.76993766
H       -2.53635951      -3.60953217      -6.78261095
H       -2.38448781      -0.72117317      -5.82039285
H       -1.09462739      -1.89863574      -5.92226752
H       -2.18117283      -3.29673681      -4.16925304
H       -3.51237346      -2.13813688      -4.06604794
H       -1.93706944      -0.33885262      -3.40023519
H       -0.58050328      -1.44961228      -3.54572204
H       -3.34561336      -0.74078338      -0.93344941
H       -5.05466063      -2.19620791      -0.77333909
H       -3.23888477      -4.04838997      -2.08310874
C       -5.00884130      -1.30901716      -6.66974941
C       -5.47219730      -0.19561839      -6.67871545
Br      -6.22140477       1.60465326      -6.69321278
N       -5.96808013       6.99944115       4.15650401
C       -5.17466333       7.92695729       4.55436507
N       -3.84230895       7.98359612       4.32481004
C       -3.08082458       6.87179180       3.80045624
H       -3.30341843       5.94814845       4.34565504
C       -3.28075452       6.73368160       2.28781146
C       -2.43259225       5.67748728       1.56632617
C       -2.57189794       4.26329049       2.13185618
C       -1.69061868       3.27718649       1.35370274
C       -1.83298418       1.83298418       1.83298418
H       -2.84793948       1.45125504       1.69072149
N       -1.35724781       1.66783924       3.17919462
C       -2.11499244       1.57537029       4.30111833
N       -3.37477184       1.75312596       4.44069165
H       -6.92534220       7.21053143       4.46218896
H       -5.55105990       8.78832659       5.13217211
H       -3.29283892       8.61030876       4.90205051
H       -3.09559246       7.70234601       1.80301213
H       -4.33597512       6.50411436       2.08841315
H       -1.37873772       5.97603607       1.57128004
H       -2.73600656       5.66825856       0.51126554
H       -3.61996214       3.94659554       2.08060500
H       -2.27457809       4.25760095       3.18437924
H       -0.64339283       3.60043601       1.43232841
H       -1.95359992       3.33323070       0.28900697
H       -0.38308645       1.39191044       3.24484925
H       -1.51271015       1.32146788       5.19002960
H       -3.82030915       1.99313135       3.55694298
C       -1.70666864       7.18077178       4.10016746
C       -0.55581303       7.43954251       4.35117560
Br       1.30502314       7.85795290       4.75703454
N        5.63515811      -7.18225156       4.30661563
C        4.80023348      -7.95735473       4.89839748
N        3.45161227      -7.87564009       4.82346276
C        2.75707988      -6.74279608       4.25319666
H        3.14345054      -5.79951633       4.65425504
C        2.78481597      -6.79512775       2.72230387
C        1.97468747      -5.72797420       1.97374403
C        2.33461868      -4.28835862       2.34406731
C        1.47729710      -3.29246683       1.55174399
C        1.83298418      -1.83298418       1.83298418
H        2.85840357      -1.59561905       1.53589339
N        1.54576182      -1.46589308       3.19262676
C        2.44021997      -1.34530190       4.20595920
N        3.68082057      -1.65918084       4.22858804
H        6.59394407      -7.47408665       4.53003186
H        5.14855159      -8.79035163       5.53265537
H        2.91189317      -8.36425969       5.52904534
H        2.43785471      -7.78083348       2.38226240
H        3.82647360      -6.71899594       2.38303310
H        0.90317230      -5.89343593       2.12944560
H        2.14634186      -5.87040790       0.89878089
H        3.39674398      -4.10931372       2.14110499
H        2.17028685      -4.13222570       3.41404574
H        0.41862634      -3.47510901       1.78242189
H        1.60080026      -3.49541161       0.47962573
H        0.62263546      -1.06771836       3.32949233
H        1.98200643      -0.92485044       5.11735076
H        3.98653102      -2.04624260       3.33760986
C        1.40438230      -6.84748384       4.73574172
C        0.27149808      -6.93515985       5.13987321
Br      -1.56027989      -7.07692454       5.79331965
C       -0.00445707       0.01189536      -1.78238275
H       -0.66409135       0.67374010      -2.43557963
H        0.65740317      -0.63156657      -2.45157240
C       -0.90989263      -0.90692880      -0.91072765
C        0.90977584       0.90977584      -0.90977584
C       -0.00465871       1.77757030       0.00794375
H       -0.66225468       2.44313916      -0.64384735
H        0.64322798       2.43503045       0.67728295
C       -1.78241447       0.00034974      -0.00472694
H       -2.45427497      -0.65498947       0.64260836
H       -2.43311707       0.67328779      -0.65473579
C       -0.91132561       0.90220522       0.91563759
C       -0.01476271      -0.02253852       1.78660255
H       -0.67934791      -0.69751639       2.42135241
H        0.63392994       0.61504881       2.47327442
C        0.01484550      -1.77751727      -0.01636693
H        0.67870853      -2.42144646      -0.68295456
H       -0.62264859      -2.45592969       0.64226336
C        1.78714474       0.01002794       0.00389507
H        2.44202412       0.67113390       0.66197326
H        2.45385902      -0.65136977      -0.64189061
C        0.91606151      -0.90478549       0.90901405
