114
Properties=species:S:1:pos:R:3 pbc="F F F"
C        1.82596596       1.82596596      -1.82596596
C        2.44842903       2.96439370      -1.02390767
C        3.52055702       2.53471055      -0.03832765
C        3.38676039       2.77486924       1.27775184
C        4.70680351       1.85067885      -0.55264690
C        5.02251887       0.61389770      -0.13008991
C        5.55302204       2.55964140      -1.58928142
C        6.45598815       3.60967815      -0.95947808
H        1.16249644       2.22056349      -2.60122236
H        2.56579833       1.17264660      -2.29562517
H        1.65253745       3.51127761      -0.50017318
H        2.88265292       3.69007966      -1.72227304
H        2.50833509       3.27184266       1.67729699
H        4.14383695       2.47505966       1.99619125
H        4.41444996       0.08788307       0.60011652
H        5.89539588       0.08999182      -0.50511301
H        4.91633568       3.00912852      -2.36151753
H        6.16968622       1.82538274      -2.12754433
H        7.17100239       3.16937161      -0.26049667
H        5.89438559       4.40154810      -0.45919422
C        7.23631334       4.25339735      -1.98432841
C        7.88983569       4.79251218      -2.84264055
Br       8.94652606       5.66421526      -4.23045870
C       -1.82596596      -1.82596596      -1.82596596
C       -2.01987787      -1.20927115      -3.20758138
C       -0.78301020      -1.22241312      -4.08817190
C       -0.25272303      -0.07782976      -4.55332501
C       -0.17753116      -2.51171680      -4.42088130
C        1.09752082      -2.77722274      -4.08680456
C       -1.02967863      -3.54578684      -5.12647939
C       -1.16461314      -3.24818424      -6.61234700
H       -2.78294970      -1.90031922      -1.30101337
H       -1.36319793      -2.81579222      -1.85507994
H       -2.38983821      -0.18126462      -3.09288541
H       -2.82471258      -1.74733428      -3.72295876
H       -0.68318500       0.88785526      -4.30755102
H        0.63085490      -0.06903123      -5.18452903
H        1.71389382      -2.05060812      -3.56550221
H        1.56048958      -3.73004621      -4.32094408
H       -2.01749875      -3.61536665      -4.65411632
H       -0.58543123      -4.54293140      -4.99425067
H       -0.20021015      -3.27560996      -7.12505056
H       -1.65604733      -2.29242487      -6.80665571
C       -1.98237335      -4.25684260      -7.23482315
C       -2.66724753      -5.10159397      -7.75614692
Br      -3.77463114      -6.46748550      -8.59908337
C       -1.82596596       1.82596596       1.82596596
C       -2.02306456       3.20628486       1.20738099
C       -2.89900475       3.22726695      -0.03267649
C       -2.42227755       3.67062887      -1.20902862
C       -4.27801846       2.75257370       0.07953710
C       -4.71201548       1.72316022      -0.66866923
C       -5.19380551       3.43227964       1.07585971
C       -5.71504248       4.76097781       0.54912409
H       -1.29817637       1.90510222       2.78100371
H       -2.76263992       1.28570866       1.98572151
H       -1.04016637       3.64200741       0.98181446
H       -2.46410565       3.86967383       1.96122614
H       -1.39856517       4.01649435      -1.31217876
H       -3.03494902       3.69307494      -2.10531860
H       -4.06043759       1.21618120      -1.37440227
H       -5.72977324       1.35485737      -0.59412990
H       -4.68067758       3.57058621       2.03571794
H       -6.04378643       2.77348644       1.30534041
H       -6.31819556       4.63591187      -0.35323676
H       -4.91569936       5.48044693       0.35898163
C       -6.57732450       5.36533999       1.53137460
C       -7.29948569       5.87149332       2.35400941
Br      -8.46715927       6.68990044       3.68414030
C        1.82596596      -1.82596596       1.82596596
C        2.19656063      -1.11598749       3.12418229
C        1.04877796      -0.94197791       4.10283935
C        0.66111657       0.28129192       4.50405315
C        0.37037340      -2.13798932       4.60176654
C       -0.94765802      -2.31270890       4.40145560
C        1.19385514      -3.18293612       5.32515360
C        1.48872700      -2.77544412       6.76097325
H        2.72125525      -2.03136042       1.23166662
H        1.28647561      -2.76332891       1.98426557
H        2.63932598      -0.13941614       2.88524613
H        2.99725524      -1.68037592       3.61737445
H        1.14669128       1.17949773       4.13568721
H       -0.15710171       0.42382404       5.20363111
H       -1.54608660      -1.57897809       3.86932503
H       -1.46547524      -3.19615171       4.75982424
H        2.12495718      -3.38200918       4.78001536
H        0.65735732      -4.14278005       5.32247592
H        0.57642334      -2.67138897       7.35305837
H        2.07426142      -1.85578191       6.82508459
C        2.27260734      -3.79899474       7.40243702
C        2.92910712      -4.65621837       7.93966293
Br       3.99061173      -6.04227649       8.80831179
C       -0.00445707       0.01189536      -1.78238275
H       -0.66409135       0.67374010      -2.43557963
H        0.65740317      -0.63156657      -2.45157240
C       -0.90989263      -0.90692880      -0.91072765
C        0.90977584       0.90977584      -0.90977584
C       -0.00465871       1.77757030       0.00794375
H       -0.66225468       2.44313916      -0.64384735
H        0.64322798       2.43503045       0.67728295
C       -1.78241447       0.00034974      -0.00472694
H       -2.45427497      -0.65498947       0.64260836
H       -2.43311707       0.67328779      -0.65473579
C       -0.91132561       0.90220522       0.91563759
C       -0.01476271      -0.02253852       1.78660255
H       -0.67934791      -0.69751639       2.42135241
H        0.63392994       0.61504881       2.47327442
C        0.01484550      -1.77751727      -0.01636693
H        0.67870853      -2.42144646      -0.68295456
H       -0.62264859      -2.45592969       0.64226336
C        1.78714474       0.01002794       0.00389507
H        2.44202412       0.67113390       0.66197326
H        2.45385902      -0.65136977      -0.64189061
C        0.91606151      -0.90478549       0.90901405
