93
Properties=species:S:1:pos:R:3 pbc="F F F"
C        0.00000000       0.00000000       0.00000000
C        0.91606194       0.91606194      -0.91606194
C        1.53852501       2.05448967      -0.11400365
C        2.61065299       1.62480652       0.87157637
C        2.47685637       1.86496522       2.18765586
C        3.79689949       0.94077483       0.35725712
C        4.11261485      -0.29600633       0.77981412
C        4.64311802       1.64973737      -0.67937739
C        5.54608412       2.69977412      -0.04957406
H        0.25259242       1.31065947      -1.69131833
H        1.65589430       0.26274257      -1.38572115
H        0.74263342       2.60137359       0.40973084
H        1.97274889       2.78017563      -0.81236902
H        1.59843106       2.36193864       2.58720101
H        3.23393293       1.56515564       2.90609528
H        3.50454594      -0.82202095       1.51002054
H        4.98549185      -0.81991220       0.40479101
H        4.00643165       2.09922450      -1.45161350
H        5.25978220       0.91547872      -1.21764030
H        6.26109837       2.25946758       0.64940735
H        4.98448157       3.49164408       0.45070980
C        6.32640932       3.34349332      -1.07442438
C        6.97993167       3.88260815      -1.93273653
Br       8.03662203       4.75431123      -3.32055468
C       -0.91606194      -0.91606194      -0.91606194
C       -0.36402009      -1.00792750      -2.33507074
C        0.91653172      -1.81298840      -2.46742646
C        2.04095571      -1.25088228      -2.94423916
C        0.90143176      -3.21867541      -2.06317354
C        1.72579371      -3.66383918      -1.09874894
C       -0.08184447      -4.15099437      -2.73939395
C        0.39810234      -4.57373565      -4.11979900
H       -1.89990031      -0.43754086      -0.91712905
H       -0.99779092      -1.88660820      -0.41995890
H       -0.21336847       0.00690361      -2.72781131
H       -1.12906265      -1.45450447      -2.98172642
H        2.07231204      -0.20662705      -3.23885368
H        2.96506610      -1.81200592      -3.04605346
H        2.42352235      -3.00187339      -0.59415340
H        1.72387976      -4.70175831      -0.78291009
H       -1.07294799      -3.68430828      -2.80001337
H       -0.23113067      -5.04498190      -2.11678865
H        1.33578708      -5.13263491      -4.07431077
H        0.50747348      -3.72925532      -4.80363401
C       -0.56980523      -5.45581573      -4.71870607
C       -1.38042781      -6.19455779      -5.22029074
Br      -2.69113597      -7.38904123      -6.03131074
C       -0.91606194       0.91606194       0.91606194
C       -1.83333404       1.79838835       0.07529594
C       -2.94800288       1.05586451      -0.63998424
C       -3.04962603       1.08485057      -1.98031088
C       -3.91276494       0.30473751       0.16291474
C       -4.07083362      -1.01853023      -0.01550899
C       -4.70792808       1.04966820       1.21463650
C       -5.85849244       1.83451188       0.60242799
H       -0.22421601       1.52919038       1.50116382
H       -1.45747458       0.25205460       1.59482883
H       -1.22698111       2.35757862      -0.65028356
H       -2.27892958       2.56172542       0.72463854
H       -2.33629430       1.62856379      -2.59168941
H       -3.84062123       0.56020451      -2.50783245
H       -3.49449197      -1.56746364      -0.75452389
H       -4.77772380      -1.59186907       0.57493390
H       -4.05198619       1.71188831       1.79339516
H       -5.10553643       0.33636062       1.95100416
H       -6.58170370       1.18236390       0.10709100
H       -5.51886050       2.60245207      -0.09589673
C       -6.58001812       2.52341253       1.64089637
C       -7.18429588       3.10036682       2.51061364
Br      -8.16136191       4.03325312       3.91687291
C        0.91606194      -0.91606194       0.91606194
C        0.51723238      -0.80556183       2.38422412
C       -0.81437985      -1.44765067       2.73061232
C       -1.81822325      -0.72071474       3.25167424
C       -0.98320849      -2.87954562       2.48408006
C       -1.94875765      -3.32458420       1.66096786
C       -0.02868927      -3.84284539       3.15807666
C       -0.39324751      -4.07133361       4.61734621
H        1.93657303      -0.55102755       0.76696964
H        0.84612307      -1.93404971       0.52418524
H        0.51201621       0.25357068       2.67583064
H        1.30079038      -1.26737906       2.99712410
H       -1.71334795       0.34466267       3.43117931
H       -2.77652150      -1.16382437       3.50569042
H       -2.62876629      -2.64309105       1.15817969
H       -2.08445961      -4.38255655       1.46269170
H        1.00439079      -3.48441572       3.06846314
H       -0.03815877      -4.80508852       2.62597147
H       -1.38096725      -4.52534164       4.72678421
H       -0.34246658      -3.15638034       5.21150209
C        0.54253774      -4.99091570       5.21087358
C        1.32625790      -5.76106569       5.70795276
Br       2.59346710      -7.00633309       6.51168775
