130
Properties=species:S:1:pos:R:3 pbc="F F F"
C        1.82616032       1.82616032      -1.82616032
C        1.22821662       1.92097519      -3.22175326
C        2.03265743       2.82752930      -4.12764760
C        1.50914798       3.95041960      -4.64484521
C        3.35550739       2.47914764      -4.45251459
C        4.47528046       2.18425180      -4.72750718
C        5.76238322       1.84528542      -5.04358964
C        6.88215629       1.55038959      -5.31858223
C        8.20500625       1.20200793      -5.64344922
C        8.96806920       0.60373328      -4.71502227
C        8.73919828       1.52528852      -7.02099635
C        7.99686522       0.77091545      -8.11649098
H        2.81723110       1.36077655      -1.82483038
H        1.88265259       2.80090567      -1.33145653
H        0.19175151       2.27798530      -3.15331673
H        1.17107642       0.92330566      -3.67697890
H        0.48958945       4.25501735      -4.42946516
H        2.08292298       4.59777217      -5.30263398
H        8.58813602       0.37805221      -3.72210508
H        9.99724864       0.32388552      -4.91807345
H        9.81111885       1.29139235      -7.07646179
H        8.66094311       2.60817035      -7.18866973
H        6.94468046       1.06040466      -8.18430053
H        8.06957749      -0.31309895      -7.99424878
C        8.57801473       1.07740229      -9.39786956
C        9.06472744       1.33408502     -10.47102412
Br       9.85170073       1.74911929     -12.20622428
C       -1.82616032      -1.82616032      -1.82616032
C       -3.27050533      -1.74488288      -1.35555685
C       -4.20202417      -2.55888141      -2.22692874
C       -5.18939989      -1.98349034      -2.93152256
C       -4.04402281      -3.95461827      -2.28852854
C       -3.91027609      -5.13608712      -2.34067622
C       -3.75653958      -6.49410495      -2.40061375
C       -3.62279286      -7.67557380      -2.45276144
C       -3.46479150      -9.07131066      -2.51436124
C       -2.22723135      -9.58962381      -2.46996959
C       -4.68850629      -9.95023302      -2.64674384
C       -5.60370355      -9.84709329      -1.43347481
H       -1.41577393      -2.83828679      -1.74877732
H       -1.70214181      -1.46199195      -2.85088102
H       -3.59166016      -0.69469061      -1.33670276
H       -3.35105591      -2.10053817      -0.31976691
H       -5.35531856      -0.91083866      -2.90791473
H       -5.86460663      -2.56792928      -3.55079322
H       -1.34645562      -8.95888829      -2.38294940
H       -2.05632445     -10.66051114      -2.52237202
H       -4.38936508     -10.99717460      -2.79243332
H       -5.23454821      -9.66644924      -3.55678575
H       -6.02860927      -8.84675261      -1.31402377
H       -5.09973433     -10.14187528      -0.50911770
C       -6.72289836     -10.73938723      -1.59100099
C       -7.66022402     -11.48668340      -1.72292916
Br      -9.17580033     -12.69499811      -1.93624586
C       -1.82616032       1.82616032       1.82616032
C       -3.19691097       1.98756033       1.18647377
C       -4.13410062       2.81023317       2.04350053
C       -5.26399860       2.29089418       2.54952001
C       -3.82641153       4.15730037       2.30345772
C       -3.56595715       5.29757048       2.52351181
C       -3.26657853       6.60823298       2.77644677
C       -3.00612416       7.74850309       2.99650086
C       -2.69843507       9.09557029       3.25645805
C       -1.41437503       9.45050392       3.42194581
C       -3.82003685      10.10486474       3.36058156
C       -4.57574636      10.26122245       2.04730284
H       -1.29585564       2.77859491       1.92838748
H       -1.87879104       1.33387736       2.80234637
H       -3.63120676       0.99709000       0.99475677
H       -3.10100885       2.46708618       0.20326595
H       -5.54736334       1.25869931       2.36800930
H       -5.94235459       2.88312015       3.15785440
H       -0.60795334       8.72495637       3.35538360
H       -1.13003736      10.47701128       3.63215897
H       -3.42425810      11.08044464       3.67427026
H       -4.50849576       9.79187788       4.15740956
H       -5.09345001       9.34485425       1.75108140
H       -3.92560476      10.59214411       1.23297845
C       -5.59613809      11.26723596       2.18991253
C       -6.45071616      12.10977228       2.30934814
Br      -7.83249663      13.47208225       2.50246542
C        1.82616032      -1.82616032       1.82616032
C        1.23716698      -1.90736841       3.22640968
C        2.04160803      -2.81322693       4.13299936
C        1.51402287      -3.92895396       4.66143595
C        3.36899570      -2.47171879       4.44645514
C        4.49260982      -2.18264129       4.71178833
C        5.78412763      -1.85036272       5.01676794
C        6.90774175      -1.56128523       5.28210113
C        8.23512942      -1.21977708       5.59555690
C        8.99586533      -0.63308372       4.65787571
C        8.77653956      -1.53732492       6.97161867
C        8.04688846      -0.77043824       8.06694495
H        2.82034461      -1.36760202       1.81489140
H        1.87262105      -2.80461602       1.33777772
H        0.19785009      -2.25772195       3.16748149
H        1.18994379      -0.90625398       3.67516322
H        0.49096123      -4.22801407       4.45509665
H        2.08787285      -4.57573104       5.31972524
H        8.61067925      -0.41156938       3.66604468
H       10.02829436      -0.35892236       4.85199089
H        9.85038301      -1.31041099       7.01817901
H        8.69206401      -2.61847797       7.14724122
H        6.99324652      -1.05223852       8.14390061
H        8.12614055       0.31219467       7.93678144
C        8.63470891      -1.07216989       9.34640778
C        9.12700854      -1.32487015      10.41795790
Br       9.92301541      -1.73346509      12.15056381
C       -0.00445707       0.01189536      -1.78238275
H       -0.66409135       0.67374010      -2.43557963
H        0.65740317      -0.63156657      -2.45157240
C       -0.90989263      -0.90692880      -0.91072765
C        0.90977584       0.90977584      -0.90977584
C       -0.00465871       1.77757030       0.00794375
H       -0.66225468       2.44313916      -0.64384735
H        0.64322798       2.43503045       0.67728295
C       -1.78241447       0.00034974      -0.00472694
H       -2.45427497      -0.65498947       0.64260836
H       -2.43311707       0.67328779      -0.65473579
C       -0.91132561       0.90220522       0.91563759
C       -0.01476271      -0.02253852       1.78660255
H       -0.67934791      -0.69751639       2.42135241
H        0.63392994       0.61504881       2.47327442
C        0.01484550      -1.77751727      -0.01636693
H        0.67870853      -2.42144646      -0.68295456
H       -0.62264859      -2.45592969       0.64226336
C        1.78714474       0.01002794       0.00389507
H        2.44202412       0.67113390       0.66197326
H        2.45385902      -0.65136977      -0.64189061
C        0.91606151      -0.90478549       0.90901405
