154
Properties=species:S:1:pos:R:3 pbc="F F F"
C        1.78382993       1.78382993      -1.78382993
S        1.31049248       3.34006090      -2.26182818
C        2.76174792       3.58026796      -3.15429207
C        3.59666379       2.48066341      -3.04620084
C        2.99957447       1.41200975      -2.29990187
O        3.52841365       0.17972556      -2.07017829
C        4.27133615      -0.30756092      -3.18841190
C        5.69676457       0.22782516      -3.20459643
C        5.78613084       1.71632551      -2.89541961
O        4.82698486       2.47602430      -3.62968038
C        2.99904996       4.80079814      -3.88718277
S        2.85942402       6.34016421      -3.13124031
C        3.29727477       7.15159329      -4.55349162
C        3.58119055       6.29966695      -5.59103701
C        3.34719607       4.93441396      -5.22098283
O        3.45868078       3.84321923      -6.02787144
C        3.09655299       4.11493173      -7.38113935
C        4.24133133       4.74134076      -8.16617201
C        4.93381059       5.87547513      -7.42256910
O        3.99896401       6.75885057      -6.80165616
Br       3.41831201       9.02248004      -4.64206745
H        4.30333683      -1.40020097      -3.10540264
H        3.74915149      -0.09412438      -4.13147516
H        6.12865367       0.02331095      -4.19142194
H        6.30628675      -0.31184146      -2.47047884
H        6.77794602       2.07867364      -3.18880788
H        5.70212672       1.91218624      -1.81755185
H        2.83429883       3.15669099      -7.84372899
H        2.18745681       4.73009109      -7.42968786
H        3.84277363       5.10864681      -9.11902750
H        4.99252388       3.97948430      -8.40587822
H        5.51355402       6.46837018      -8.13953196
H        5.66091905       5.49452201      -6.69189420
C       -1.78382993      -1.78382993      -1.78382993
S       -1.40620852      -2.10006627      -3.40610677
C       -2.80727247      -3.07735474      -3.61168076
C       -3.52269299      -3.17121288      -2.42962216
C       -2.95940619      -2.36778701      -1.38429289
O       -3.45741778      -2.19016266      -0.13073707
C       -4.88503605      -2.15124751      -0.11590358
C       -5.49449746      -3.54643166      -0.08825704
C       -4.82723186      -4.51597695      -1.05466715
O       -4.64174330      -3.94274210      -2.34820414
C       -3.11802676      -3.68610973      -4.88289438
S       -1.96271498      -4.64669549      -5.72141807
C       -3.04958946      -4.97208446      -6.98068576
C       -4.28330355      -4.40445282      -6.78413815
C       -4.30351470      -3.60478632      -5.59429183
O       -5.34066104      -2.84728933      -5.14182108
C       -6.11497125      -2.27995562      -6.19769721
C       -7.14420220      -3.26026554      -6.74437636
C       -6.57556715      -4.64796958      -7.00831809
O       -5.30646144      -4.59196088      -7.66104843
Br      -2.58789118      -6.04549429      -8.44947402
H       -5.18555724      -1.61443352       0.79145226
H       -5.27170294      -1.55833452      -0.95646481
H       -6.56207039      -3.45893951      -0.32237666
H       -5.42178704      -3.96530000       0.92216292
H       -5.47465155      -5.39140009      -1.17937590
H       -3.87866861      -4.89923041      -0.65396578
H       -6.63994216      -1.41212005      -5.78265661
H       -5.46747924      -1.88638814      -6.99336837
H       -7.55604891      -2.84352231      -7.67087673
H       -7.97831200      -3.35984003      -6.03973437
H       -7.25817930      -5.19108236      -7.67219450
H       -6.51828762      -5.24292515      -6.08612249
C       -1.78382993       1.78382993       1.78382993
S       -3.07808575       1.15434387       2.67995195
C       -3.48187134       2.70309925       3.31133737
C       -2.60234439       3.66919096       2.85199269
C       -1.65331245       3.14340139       1.91477225
O       -0.70310730       3.84037199       1.23483820
C       -1.15325280       5.14204483       0.85688950
C       -0.99209591       6.15230327       1.98478698
C       -1.43759204       5.61999353       3.34029039
O       -2.70151899       4.96138952       3.26978103
C       -4.60387957       2.88167791       4.20147339
S       -4.77869676       1.92872132       5.62341045
C       -6.20385042       2.73237869       6.06613056
C       -6.55043480       3.73065912       5.19080059
C       -5.65363661       3.77588414       4.07307212
O       -5.74758033       4.59376304       2.98842808
C       -7.09754504       4.87432060       2.62075844
C       -7.69535768       6.00205424       3.45143219
C       -7.42853441       5.85950165       4.94381876
O       -7.63689195       4.52231497       5.40026382
Br      -7.15143033       2.30308479       7.62834437
H       -0.54289341       5.46150582       0.00413927
H       -2.18817699       5.10950263       0.48882265
H       -1.56762423       7.04913172       1.72663061
H        0.05764756       6.45779739       2.06477429
H       -1.55125986       6.46358441       4.03058326
H       -0.67711418       4.96596992       3.78878071
H       -7.08885480       5.17803994       1.56782407
H       -7.71485021       3.96650342       2.66588213
H       -8.77554354       6.02840399       3.26650042
H       -7.29054030       6.96605765       3.12128845
H       -8.12692597       6.50212560       5.49240458
H       -6.42306584       6.21437166       5.20989776
C        1.78382993      -1.78382993       1.78382993
S        3.43325543      -2.01329824       1.46582789
C        3.61901167      -3.05392490       2.82337139
C        2.42584703      -3.18327834       3.51440267
C        1.34491925      -2.49362646       2.87294038
O        0.04050820      -2.47853710       3.25927220
C       -0.37896447      -3.73286221       3.79828939
C       -0.01398562      -3.87320261       5.26996917
C        1.40108491      -3.40881429       5.58797676
O        2.35562540      -3.91902349       4.65804065
C        4.88922272      -3.66588414       3.13192401
S        6.32244453      -2.72579499       3.28258901
C        7.25670188      -4.08992776       3.65573003
C        6.52054614      -5.24690162       3.70444676
C        5.15482130      -5.00934874       3.33842282
O        4.17281605      -5.94426154       3.21269385
C        4.65882870      -7.19823042       2.73556495
C        5.24618812      -8.04852487       3.85413111
C        6.18605225      -7.27595850       4.76984407
O        7.08262359      -6.44062586       4.03622129
Br       9.09659879      -3.97726204       4.00899866
H       -1.46942895      -3.78126951       3.69669794
H        0.01455284      -4.56871644       3.20323299
H       -0.13630913      -4.92491451       5.55478118
H       -0.71153137      -3.29211459       5.88434091
H        1.68185809      -3.78545031       6.57811913
H        1.46289207      -2.31387516       5.65509758
H        3.80587544      -7.72997824       2.29886513
H        5.37573146      -7.05640939       1.91509491
H        5.77824849      -8.89242497       3.39977449
H        4.44067466      -8.47048791       4.46672383
H        6.79666385      -7.98930736       5.33548495
H        5.63168681      -6.69531667       5.52033179
C       -0.00445707       0.01189536      -1.78238275
H       -0.66409135       0.67374010      -2.43557963
H        0.65740317      -0.63156657      -2.45157240
C       -0.90989263      -0.90692880      -0.91072765
C        0.90977584       0.90977584      -0.90977584
C       -0.00465871       1.77757030       0.00794375
H       -0.66225468       2.44313916      -0.64384735
H        0.64322798       2.43503045       0.67728295
C       -1.78241447       0.00034974      -0.00472694
H       -2.45427497      -0.65498947       0.64260836
H       -2.43311707       0.67328779      -0.65473579
C       -0.91132561       0.90220522       0.91563759
C       -0.01476271      -0.02253852       1.78660255
H       -0.67934791      -0.69751639       2.42135241
H        0.63392994       0.61504881       2.47327442
C        0.01484550      -1.77751727      -0.01636693
H        0.67870853      -2.42144646      -0.68295456
H       -0.62264859      -2.45592969       0.64226336
C        1.78714474       0.01002794       0.00389507
H        2.44202412       0.67113390       0.66197326
H        2.45385902      -0.65136977      -0.64189061
C        0.91606151      -0.90478549       0.90901405
