197
Properties=species:S:1:pos:R:3 pbc="F F F"
C        0.00000000       0.00000000       0.00000000
C        0.91641144       0.91641144      -0.91641144
C        1.53282620       2.02517322      -0.07240879
C        2.50092480       2.92014860      -0.87560174
H        3.27003447       2.26632896      -1.30892590
C        3.24277209       3.93082971       0.03445462
C        2.37757252       4.97036140       0.71883987
C        1.81255361       4.71833906       1.97711809
C        0.98739484       5.66708747       2.58707487
C        0.72940797       6.87607264       1.94603900
C        1.29257488       7.14782714       0.70240373
C        2.11544886       6.19813319       0.09186541
Cl      -0.29283890       8.04027733       2.69440740
C        1.80544384       3.58358411      -1.95323599
C        1.23222110       4.13039463      -2.84143347
C        0.57334440       4.75891248      -3.86235012
C        0.00012166       5.30572300      -4.75054761
C       -0.69535930       5.96915850      -5.82818185
H       -0.18023390       6.90943310      -6.05942083
C       -0.65761930       5.07966521      -7.09403792
C       -1.27455502       5.71716077      -8.31940150
C       -0.56468916       6.67143969      -9.06177242
C       -1.14838652       7.27576110     -10.17825038
C       -2.44545199       6.93354207     -10.55358725
C       -3.16306880       5.98737260      -9.82623882
C       -2.57695843       5.37741057      -8.71509896
Cl      -3.16735856       7.68466410     -11.92294090
C       -2.15076124       6.28856386      -5.40111788
C       -2.28860247       7.16893292      -4.16330717
Br      -1.70808743       8.99092566      -4.52469073
H        0.26168576       1.30084752      -1.70299495
H        1.67326779       0.26090921      -1.35405221
H        2.07671686       1.57972684       0.77088406
H        0.72284528       2.62788554       0.35845534
H        4.00715589       4.45489938      -0.55633102
H        3.80321673       3.38100087       0.80268122
H        2.00163733       3.77744037       2.48948524
H        0.54797731       5.45481318       3.55797986
H        1.09424151       8.09084726       0.20068886
H        2.54437056       6.42174648      -0.88281190
H       -1.15032507       4.11759501      -6.89603281
H        0.38374296       4.82170943      -7.33484765
H        0.44755704       6.95059200      -8.77669155
H       -0.58795451       8.01295668     -10.74742293
H       -4.17616770       5.72235778     -10.11576028
H       -3.15008974       4.64301902      -8.15248594
H       -2.67634208       5.34461395      -5.20107732
H       -2.68478835       6.77182733      -6.22733391
H       -1.71643905       6.80902875      -3.30521485
H       -3.33966811       7.24945247      -3.86992808
C       -0.91641144      -0.91641144      -0.91641144
C       -0.86352220      -2.35365589      -0.41323012
C       -1.78970906      -3.29970027      -1.20726582
H       -2.80667932      -2.88821962      -1.15039039
C       -1.84983445      -4.71321603      -0.57609671
C       -0.55340806      -5.49861865      -0.57706733
C        0.35006337      -5.39391765       0.49007969
C        1.55950630      -6.09375002       0.46683628
C        1.86840353      -6.90830810      -0.61953703
C        0.97716334      -7.03374265      -1.68141898
C       -0.23070544      -6.33206966      -1.65894153
Cl       3.36111101      -7.76345156      -0.65069048
C       -1.39510243      -3.35183832      -2.59532318
C       -1.06986349      -3.39481105      -3.73937466
C       -0.69602563      -3.44420499      -5.05437637
C       -0.37078669      -3.48717772      -6.19842786
C        0.02381994      -3.53931578      -7.58648521
H       -0.27504092      -4.50766804      -8.00591108
C       -0.71098055      -2.42931989      -8.37578338
C       -0.44785238      -2.44877038      -9.86538448
C       -1.10582703      -3.36800665     -10.69468927
C       -0.84070251      -3.39866508     -12.06625737
C        0.08708727      -2.51536748     -12.61339713
C        0.74853185      -1.59656232     -11.80251215
C        0.47780536      -1.56037282     -10.43298364
Cl       0.42020983      -2.55959474     -14.30086154
C        1.56277850      -3.39704510      -7.70465389
C        2.37404332      -4.45452269      -6.96315827
Br       2.19932254      -6.19901012      -7.80784138
H       -0.52337654      -0.81105149      -1.93110020
H       -1.92449674      -0.49776670      -0.86596576
H       -1.15272458      -2.37843926       0.64560420
H        0.17560419      -2.70380820      -0.46407146
H       -2.61281520      -5.30878380      -1.09678730
H       -2.20887667      -4.63144684       0.45878712
H        0.12507682      -4.75917975       1.34451048
H        2.25504683      -5.99581136       1.29595391
H        1.21489261      -7.66973399      -2.52955853
H       -0.91532063      -6.43524461      -2.49836370
H       -0.45010572      -1.44114521      -7.97205183
H       -1.79585245      -2.52183193      -8.22261565
H       -1.82962703      -4.06606209     -10.27915148
H       -1.35814003      -4.11437948     -12.69990560
H        1.47514580      -0.90963217     -12.22746398
H        1.00486864      -0.84074209      -9.80954177
H        1.85845084      -2.41338738      -7.31441265
H        1.85939946      -3.41408908      -8.75968326
H        2.08748822      -4.56989404      -5.91539873
H        3.44061668      -4.21399988      -7.00632924
C       -0.91641144       0.91641144       0.91641144
C       -1.98182373       0.05957495       1.58900954
C       -2.87201239       0.86499483       2.55966793
H       -2.20951651       1.33923903       3.29653379
C       -3.83390221      -0.05135109       3.35659607
C       -4.87714915      -0.79028609       2.54223098
C       -4.60448221      -2.05692069       2.00621307
C       -5.55806679      -2.71771988       1.22706052
C       -6.79225016      -2.11933520       0.98652665
C       -7.08425508      -0.86794921       1.52169243
C       -6.12980809      -0.20660915       2.29851770
Cl      -7.96266942      -2.93037729       0.02073890
C       -3.58643490       1.90232934       1.85349969
C       -4.17526945       2.75731136       1.27146839
C       -4.85209078       3.74004932       0.60246690
C       -5.44092533       4.59503134       0.02043560
C       -6.15534785       5.63236585      -0.68573265
H       -7.08691901       5.85170143      -0.15000041
C       -5.30273992       6.92367103      -0.71032712
C       -5.99334428       8.11166077      -1.34299780
C       -6.94837345       8.84702410      -0.62687459
C       -7.60168107       9.92814435      -1.22420045
C       -7.30782768      10.27480608      -2.54095642
C       -6.36156417       9.55399313      -3.26501467
C       -5.70270869       8.47843854      -2.66559612
Cl      -8.11919417      11.60033369      -3.27928142
C       -6.50349453       5.15375046      -2.11832450
C       -7.35066924       3.88778473      -2.19481634
Br      -9.16517632       4.21389668      -1.57154405
H       -1.34234825       1.67210603       0.25107396
H       -0.25271124       1.39465644       1.64086152
H       -1.49642602      -0.75429742       2.14343104
H       -2.59449481      -0.41195331       0.80973398
H       -4.35307010       0.54644364       4.11887256
H       -3.24594391      -0.78675251       3.92234499
H       -3.64391068      -2.53642688       2.18210866
H       -5.32997608      -3.69466529       0.80949984
H       -8.04689724      -0.39941888       1.33692155
H       -6.36963893       0.77347300       2.70581700
H       -4.34972825       6.73882299      -1.22524849
H       -5.02234004       7.20226112       0.31569887
H       -7.19000085       8.58397008       0.40086967
H       -8.33898508      10.49226131      -0.65882128
H       -6.13421728       9.82105519      -4.29332210
H       -4.96876189       7.92042216      -3.24376882
H       -5.56946697       4.96538467      -2.66550245
H       -7.02589380       5.94977031      -2.66129123
H       -6.94949931       3.05751351      -1.60920826
H       -7.45251359       3.56145163      -3.23425278
C        0.91641144      -0.91641144       0.91641144
C        1.02935273      -0.29708020       2.30397528
C        1.84592788      -1.16788941       3.28285786
H        1.36943803      -2.15705339       3.31879791
C        1.80641057      -0.60651137       4.72622524
C        2.44932769       0.75086010       4.93062645
C        1.70362116       1.92850777       4.77866119
C        2.31073860       3.17760750       4.93427635
C        3.66457950       3.25583818       5.25070029
C        4.41672811       2.09653463       5.41780482
C        3.81000979       0.84805104       5.25975788
Cl       4.41281686       4.79427244       5.43448660
C        3.20087926      -1.33053296       2.81085170
C        4.31764446      -1.46458549       2.42181925
C        5.60128261      -1.61866886       1.97465552
C        6.71804781      -1.75272139       1.58562307
C        8.07299919      -1.91536495       1.11361691
H        8.73256425      -2.08214877       1.97390701
C        8.15666338      -3.16072768       0.19869277
C        9.55431610      -3.48709567      -0.27940451
C       10.46321591      -4.14064912       0.56465793
C       11.76102216      -4.41751963       0.12708318
C       12.15749875      -4.03712554      -1.15294694
C       11.26601142      -3.38736558      -2.00283437
C        9.96642837      -3.11770283      -1.56858011
Cl      13.75852168      -4.36988861      -1.68816384
C        8.53248660      -0.63379538       0.37263852
C        8.49158891       0.64727568       1.19932440
Br       9.85534119       0.63540611       2.58759387
H        1.88027204      -0.98071247       0.40454372
H        0.44526425      -1.90203995       0.94092500
H        0.02338429      -0.14540083       2.71677452
H        1.48312533       0.69772485       2.20687499
H        2.29114841      -1.32208702       5.40515087
H        0.76272689      -0.55411550       5.06469399
H        0.64583813       1.88446960       4.52822393
H        1.72337079       4.08249075       4.80393058
H        5.47279366       2.15458626       5.66619251
H        4.41139830      -0.04966420       5.38786644
H        7.49340693      -3.03882959      -0.66893376
H        7.76787282      -4.03973282       0.73269439
H       10.16733064      -4.43931251       1.56819745
H       12.45664593      -4.92636383       0.78941535
H       11.57520677      -3.08682273      -3.00007915
H        9.28092298      -2.60523594      -2.24074370
H        7.89214147      -0.48496756      -0.50775984
H        9.55291094      -0.76634863      -0.00488669
H        7.53048623       0.82115903       1.68847736
H        8.72190013       1.51245998       0.57027229
