45
Properties=species:S:1:pos:R:3 pbc="F F F"
C        0.00000000       0.00000000       0.00000000
C        0.88574235       0.88574235      -0.88574235
N        0.54724940       2.18356656      -1.00173701
C        1.34482790       2.93893789      -1.78759495
C        2.44687843       2.44742899      -2.44701394
C        2.70263740       1.10879003      -2.25993843
N        1.94090097       0.30538676      -1.48663209
H        1.05220470       3.98234181      -1.86604345
H        3.54792424       0.61875772      -2.73433451
C        3.27822627       3.27887140      -3.27837685
C        3.97448008       3.97520442      -3.97464329
Br       5.10026361       5.10111602      -5.10044724
C       -0.88574235      -0.88574235      -0.88574235
N       -0.27098815      -1.67478339      -1.78678144
C       -1.07569389      -2.44327747      -2.55238938
C       -2.44677605      -2.44726336      -2.44728194
C       -2.97172445      -1.60437034      -1.49527107
N       -2.21702434      -0.81392164      -0.70197385
H       -0.55750218      -3.07127125      -3.27181654
H       -4.04245176      -1.52953306      -1.32903165
C       -3.27810186      -3.27867994      -3.27869272
C       -3.97433723      -3.97499132      -3.97499924
Br      -5.10009093      -5.10086793      -5.10086800
C       -0.88574235       0.88574235       0.88574235
N       -2.18078140       0.54017743       1.01159415
C       -2.93622545       1.33794059       1.79719471
C       -2.44742188       2.44686038       2.44703909
C       -1.11150030       2.70951921       2.25034636
N       -0.30816904       1.94796562       1.47678517
H       -3.97735169       1.03953400       1.88370427
H       -0.62373890       3.56057224       2.71670532
C       -3.27886017       3.27819774       3.27841661
C       -3.97518973       3.97444278       3.97469528
Br      -5.10109574       5.10021212       5.10051901
C        0.88574235      -0.88574235       0.88574235
N        2.18077019      -0.54014962       1.01163316
C        2.93621453      -1.33791350       1.79723271
C        2.44742188      -2.44686037       2.44703911
C        1.11151122      -2.70954629       2.25030836
N        0.30818024      -1.94799341       1.47674617
H        3.97733162      -1.03948422       1.88377413
H        0.62375897      -3.56062201       2.71663549
C        3.27886016      -3.27819773       3.27841663
C        3.97518972      -3.97444277       3.97469530
Br       5.10109573      -5.10021210       5.10051903
