37
Properties=species:S:1:pos:R:3 pbc="F F F"
C        0.00000000       0.00000000       0.00000000
C        0.88574235       0.88574235      -0.88574235
N        0.54724940       2.18356656      -1.00173701
C        1.34482790       2.93893789      -1.78759495
C        2.44687843       2.44742899      -2.44701394
Br       3.53022133       3.53089513      -3.53037649
C        2.70263740       1.10879003      -2.25993843
N        1.94090097       0.30538676      -1.48663209
H        1.05220470       3.98234181      -1.86604345
H        3.54792424       0.61875772      -2.73433451
C       -0.88574235      -0.88574235      -0.88574235
N       -0.27010117      -1.68832485      -1.77412695
C       -1.07482977      -2.45646966      -2.54006132
C       -2.44677592      -2.44726788      -2.44727755
Br      -3.53009020      -3.53070135      -3.53070141
C       -2.97258848      -1.59118032      -1.50759706
N       -2.21791092      -0.80038681      -0.71462209
H       -0.55591396      -3.09551980      -3.24915621
H       -4.04403966      -1.50529250      -1.35168432
C       -0.88574235       0.88574235       0.88574235
N       -2.17643688       0.52976815       1.02634795
C       -2.93199302       1.32779980       1.81156793
C       -2.44742024       2.44685698       2.44704414
Br      -3.53088053       3.53018552       3.53042690
C       -1.11573198       2.71965836       2.23597552
N       -0.31251138       1.95836981       1.46203863
H       -3.96957192       1.02089426       1.91012379
H       -0.63151589       3.57920593       2.69029466
C        0.88574235      -0.88574235       0.88574235
N        2.17642410      -0.52973855       1.02639033
C        2.93198056      -1.32777096       1.81160922
C        2.44742024      -2.44685697       2.44704416
Br       3.53088052      -3.53018551       3.53042692
C        1.11574443      -2.71968719       2.23593424
N        0.31252416      -1.95839940       1.46199626
H        3.96954903      -1.02084125       1.91019969
H        0.63153877      -3.57925892       2.69021878
