93
Properties=species:S:1:pos:R:3 pbc="F F F"
C        0.00000000       0.00000000       0.00000000
C        0.87411339       0.87411339      -0.87411339
C        0.61747394       2.21476974      -1.05823863
N        1.37791890       3.02019424      -1.83089418
C        2.42605022       2.42624373      -2.42573588
N        2.77535318       1.13320855      -2.32185672
C        1.97646751       0.37935415      -1.53562570
C        3.24652464       3.24934410      -3.24553885
C        3.93393144       3.95111638      -3.93490866
C        4.80480905       4.85677312      -4.81169152
C        5.48079578       5.57469508      -5.49536073
C        6.27654047       6.43351345      -6.30302981
N        5.89125224       7.71829936      -6.38005277
C        6.66575502       8.50998622      -7.15301641
C        7.77908595       8.05956723      -7.82732864
C        8.07353469       6.72303649      -7.67096566
N        7.33854189       5.88093043      -6.91249802
H       -0.22730508       2.70382213      -0.58160599
H        2.26629444      -0.66465050      -1.45735531
H        6.34649745       9.54679720      -7.20914150
H        8.93009570       6.26771573      -8.15985402
C        8.58404434       8.93079432      -8.64378766
C        9.25819699       9.66044701      -9.32757210
Br      10.34824482      10.84023370     -10.43319369
C       -0.87411339      -0.87411339      -0.87411339
C       -0.49468999      -2.14282714      -1.25296519
N       -1.25165205      -2.94624820      -2.03110707
C       -2.42598906      -2.42627605      -2.42576471
N       -2.90153986      -1.20721088      -2.12166771
C       -2.09922140      -0.45130276      -1.34092320
C       -3.24608595      -3.24941394      -3.24590770
C       -3.93213666      -3.95076250      -3.93705731
C       -4.79987621      -4.85526478      -4.81813270
C       -5.47214995      -5.57173199      -5.50696964
C       -6.26235651      -6.42832109      -6.32240612
N       -5.74887407      -7.63772310      -6.60300720
C       -6.52126550      -8.42933692      -7.37815523
C       -7.75385654      -8.05018778      -7.86193749
C       -8.17358383      -6.78720072      -7.50675229
N       -7.44759024      -5.94924029      -6.73513981
H        0.45261003      -2.57179414      -0.93893894
H       -2.49157552       0.53262197      -1.10004570
H       -6.09791600      -9.40493818      -7.59958198
H       -9.13027599      -6.39159977      -7.83578969
C       -8.55286693      -8.91918738      -8.68657202
C       -9.22203812      -9.64697455      -9.37720343
Br     -10.30403136     -10.82374484     -10.49389602
C       -0.87411339       0.87411339       0.87411339
C       -2.22110086       0.63513895       1.03424250
N       -3.02663775       1.39589748       1.80647209
C       -2.42612409       2.42571639       2.42618935
N       -1.12658310       2.75686694       2.34696841
C       -0.37298202       1.95868807       1.55977728
C       -3.24877774       3.24494439       3.24768545
C       -3.94995174       3.93068188       3.93932286
C       -4.85453749       4.79857121       4.82016499
C       -5.57135215       5.47146840       5.50803103
C       -6.42862603       6.26290367       6.32155402
N       -7.72051081       5.89742261       6.37167095
C       -8.51020916       6.66637706       7.15217143
C       -8.05113270       7.75555203       7.85929708
C       -6.70789103       8.03127602       7.72836979
N       -5.86735203       7.30065561       6.96396270
H       -2.71546733      -0.19481279       0.53746851
H        0.67632063       2.23373258       1.50158730
H       -9.55278257       6.36319773       7.18645586
H       -6.24551506       8.86815169       8.24399869
C       -8.92040053       8.55504371       8.68318209
C       -9.64841233       9.22461799       9.37318578
Br     -10.82554585      10.30726296      10.48886340
C        0.87411339      -0.87411339       0.87411339
C        2.21794697      -0.62606291       1.04647244
N        3.02339325      -1.38656676       1.81904731
C        2.42612044      -2.42571692       2.42619247
N        1.12982238      -2.76619939       2.33439668
C        0.37613442      -1.96776363       1.54754931
C        3.24875650      -3.24493618       3.24771491
C        3.94988435      -3.93060090       3.93947123
C        4.85436861      -4.79830895       4.82059612
C        5.57106591      -5.47098508       5.50880059
C        6.42816654      -6.26208622       6.32283096
N        7.71676673      -5.88710910       6.38572853
C        8.50637533      -6.65599372       7.16638860
C        8.05031977      -7.75408737       7.86157467
C        6.71029182      -8.03908212       7.71816290
N        5.87001838      -7.30904341       6.95290855
H        2.70968050       0.21146820       0.55991075
H       -0.67053485      -2.25038730       1.47914681
H        9.54628166      -6.34510380       7.21105069
H        6.25045583      -8.88343716       8.22377246
C        8.91939644      -8.55323254       8.68599734
C        9.64724815      -9.22251662       9.37645133
Br      10.82412281     -10.30469236      10.49285704
