114
Properties=species:S:1:pos:R:3 pbc="F F F"
C        1.78401742       1.78401742      -1.78401742
C        1.52737797       3.12467377      -1.96814266
N        2.28782292       3.93009826      -2.74079821
C        3.33595424       3.33614776      -3.33563991
N        3.68525721       2.04311257      -3.23176074
C        2.88637154       1.28925817      -2.44552972
C        4.15642866       4.15924812      -4.15544287
C        4.84383546       4.86102040      -4.84481269
C        5.71471307       5.76667715      -5.72159555
C        6.39069981       6.48459910      -6.40526475
C        7.18644449       7.34341747      -7.21293383
N        6.80115627       8.62820338      -7.28995679
C        7.57565905       9.41989025      -8.06292043
C        8.68898997       8.96947125      -8.73723266
C        8.98343871       7.63294052      -8.58086968
N        8.24844591       6.79083446      -7.82240205
H        0.68259895       3.61372615      -1.49151002
H        3.17619847       0.24525353      -2.36725933
H        7.25640147      10.45670123      -8.11904553
H        9.83999972       7.17761975      -9.06975805
C        9.49394836       9.84069835      -9.55369169
C       10.16810102      10.57035104     -10.23747612
Br      11.25814884      11.75013772     -11.34309772
C       -1.78401742      -1.78401742      -1.78401742
C       -1.26182300      -2.57481651      -2.78355488
N       -2.01467312      -3.36482284      -3.57922343
C       -3.33570855      -3.33620119      -3.33583216
N       -3.95806172      -2.60852493      -2.39354387
C       -3.15182216      -1.83909424      -1.63024303
C       -4.15493580      -4.15885338      -4.15733047
C       -4.83879243      -4.85633374      -4.85454237
C       -5.70174432      -5.75122332      -5.75001813
C       -6.36850096      -6.45597914      -6.45608355
C       -7.15057738      -7.29487408      -7.29734434
N       -6.48848446      -8.00427147      -8.22656051
C       -7.25648342      -8.79209342      -9.00989289
C       -8.62543123      -8.88243584      -8.88782682
C       -9.19059819      -8.10760329      -7.89904743
N       -8.47694493      -7.30038441      -7.08435308
H       -0.19533902      -2.60468015      -2.98781595
H       -3.66338260      -1.25426237      -0.87106636
H       -6.71246263      -9.36170153      -9.75798407
H      -10.26197325      -8.10573802      -7.71966625
C       -9.41543222      -9.73306582      -9.73984036
C      -10.07705805     -10.44546843     -10.45340170
Br     -11.14685105     -11.59736319     -11.60717004
C       -1.78401742       1.78401742       1.78401742
C       -3.13106789       1.54523045       1.94389605
N       -3.93660658       2.30599425       2.71611857
C       -3.33602819       3.33562041       3.33609331
N       -2.03642242       3.66657819       3.25712992
C       -1.28282307       2.86840462       2.46993174
C       -4.15868220       4.15484859       4.15758887
C       -4.85985713       4.84058758       4.84922384
C       -5.76444492       5.70848066       5.73006018
C       -6.48126195       6.38138243       6.41791928
C       -7.33853932       7.17282461       7.23143187
N       -8.63048970       6.80753970       7.28128705
C       -9.42018987       7.57649560       8.06178425
C       -8.96105310       8.66548636       8.76915442
C       -7.61774724       8.94101885       8.63848282
N       -6.77720291       8.21038641       7.87409309
H       -3.62548695       0.71543527       1.44691290
H       -0.23346782       3.14329258       2.41195092
H      -10.46281655       7.27347554       8.09585614
H       -7.15532056       9.77774004       9.15431692
C       -9.83032478       9.46498521       9.59302841
C      -10.55833981      10.13456549      10.28302288
Br     -11.73547854      11.21722017      11.39868557
C        1.78401742      -1.78401742       1.78401742
C        3.12817545      -1.53687394       1.95514501
N        3.93363104      -2.29740323       2.72768512
C        3.33602483      -3.33562089       3.33609618
N        2.03939316      -3.67517079       3.24556657
C        1.28571414      -2.87676070       2.45868459
C        4.15866267      -4.15484101       4.15761598
C        4.85979523      -4.84051299       4.84936034
C        5.76428986      -5.70823913       5.73045678
C        6.48099914      -6.38093733       6.41862719
C        7.33811748      -7.17207181       7.23260650
N        8.62705560      -6.79804368       7.29421716
C        9.41667330      -7.56693523       8.07486119
C        8.96030682      -8.66413755       8.77124952
C        7.61994824      -8.94820583       8.62909483
N        6.77964761      -8.21810904       7.86392577
H        3.62017984      -0.70010026       1.46755502
H        0.23877396      -3.15862696       2.39131041
H       10.45685403      -7.25681586       8.11847833
H        7.15985084      -9.79181339       9.13571329
C        9.82940301      -9.46331730       9.59561809
C       10.55727107     -10.13263034      10.28602677
Br      11.73417216     -11.21485291      11.40235921
C       -0.00445707       0.01189536      -1.78238275
H       -0.66409135       0.67374010      -2.43557963
H        0.65740317      -0.63156657      -2.45157240
C       -0.90989263      -0.90692880      -0.91072765
C        0.90977584       0.90977584      -0.90977584
C       -0.00465871       1.77757030       0.00794375
H       -0.66225468       2.44313916      -0.64384735
H        0.64322798       2.43503045       0.67728295
C       -1.78241447       0.00034974      -0.00472694
H       -2.45427497      -0.65498947       0.64260836
H       -2.43311707       0.67328779      -0.65473579
C       -0.91132561       0.90220522       0.91563759
C       -0.01476271      -0.02253852       1.78660255
H       -0.67934791      -0.69751639       2.42135241
H        0.63392994       0.61504881       2.47327442
C        0.01484550      -1.77751727      -0.01636693
H        0.67870853      -2.42144646      -0.68295456
H       -0.62264859      -2.45592969       0.64226336
C        1.78714474       0.01002794       0.00389507
H        2.44202412       0.67113390       0.66197326
H        2.45385902      -0.65136977      -0.64189061
C        0.91606151      -0.90478549       0.90901405
