69
Properties=species:S:1:pos:R:3 pbc="F F F"
C        0.00000000       0.00000000       0.00000000
C        0.88507108       0.88507108      -0.88507108
N        0.46899540       2.13833292      -1.12679381
C        1.26804088       2.89200170      -1.91079493
C        2.46343482       2.46318992      -2.46330204
C        2.77990198       1.15411697      -2.13649335
N        2.02064796       0.35053641      -1.36248221
C        3.30759288       3.30666705      -3.30691782
C        3.90254045       2.86107805      -4.47600193
N        4.68804052       3.61535669      -5.27361829
C        4.88684940       4.88497147      -4.88542698
N        4.36537974       5.43470690      -3.77744194
C        3.59208432       4.63052401      -3.01738099
Br       5.98181246       5.97926620      -5.97965746
H        0.88357076       3.89424714      -2.09417368
H        3.69782874       0.68618985      -2.48686194
H        3.75544672       1.84552518      -4.83838590
H        3.20550389       5.11356821      -2.12093785
C       -0.88507108      -0.88507108      -0.88507108
N       -0.60491798      -2.19713807      -0.93206607
C       -1.39995367      -2.94956347      -1.72132036
C       -2.46341891      -2.46317675      -2.46333112
C       -2.64783352      -1.09649898      -2.32617980
N       -1.88466928      -0.29169618      -1.55730111
C       -3.30755196      -3.30659559      -3.30703019
C       -3.70844508      -2.94756663      -4.58360872
N       -4.48869028      -3.70380266      -5.38452256
C       -4.88677231      -4.88481988      -4.88565566
N       -4.56457191      -5.34601282      -3.66694386
C       -3.78593921      -4.54392260      -2.91012751
Br      -5.98173307      -5.97903232      -5.97997073
H       -1.12601495      -4.00333961      -1.74263701
H       -3.45530446      -0.57706540      -2.83851067
H       -3.39602367      -2.00805107      -5.03528306
H       -3.56487516      -4.95086484      -1.92426995
C       -0.88507108       0.88507108       0.88507108
N       -1.59641289       0.28506442       1.85264481
C       -2.36742399       1.08999600       2.61341752
C       -2.46323602       2.46345046       2.46324030
C       -1.67934601       2.95816793       1.43299835
N       -0.89265032       2.20464473       0.63637152
C       -3.30668193       3.30759793       3.30689788
C       -4.10510180       4.32476972       2.80974891
N       -4.89200107       5.12134144       3.56367300
C       -4.88495272       4.88684304       4.88545209
N       -4.15819701       3.93212447       5.48720710
C       -3.38743479       3.17017223       4.68238230
Br      -5.97903235       5.98173309       5.97997068
H       -2.93921833       0.55942814       3.37334511
H       -1.64154530       4.02208222       1.20725301
H       -4.15572098       4.53954132       1.74409550
H       -2.80315117       2.42133421       5.21552458
C        0.88507108      -0.88507108       0.88507108
N        1.59629729      -0.28508332       1.85274150
C        2.36731165      -1.09001414       2.61351170
C        2.46323603      -2.46345046       2.46324028
C        1.67945848      -2.95814976       1.43290406
N        0.89276596      -2.20462583       0.63627479
C        3.30668198      -3.30759795       3.30689781
C        4.10521351      -4.32467420       2.80973272
N        4.89211592      -5.12124349       3.56365609
C        4.88495282      -4.88684308       4.88545195
N        4.15808235      -3.93222247       5.48722376
C        3.38732329      -3.17026772       4.68239831
Br       5.97903248      -5.98173316       5.97997048
H        2.93901083      -0.55946016       3.37352058
H        1.64175286      -4.02205018       1.20707749
H        4.15592711      -4.53936348       1.74406722
H        2.80294514      -2.42151209       5.21555272
