85
Properties=species:S:1:pos:R:3 pbc="F F F"
C        0.00000000       0.00000000       0.00000000
C        0.88571906       0.88571906      -0.88571906
N        0.54663331       2.18268500      -1.00188187
C        1.34419512       2.93786590      -1.78667504
C        2.44979798       2.44997044      -2.44794251
C        2.70300091       1.10954305      -2.25815729
N        1.94140757       0.30559275      -1.48571086
C        3.27190004       3.27548271      -3.26873960
C        3.95865882       3.97858779      -3.95697120
C        4.82803024       4.88504884      -4.83131183
C        5.50435949       5.60417721      -5.51408822
C        6.30307777       6.46460373      -6.32218305
C        6.01737256       7.80273484      -6.47960530
N        6.75503682       8.64221097      -7.23707305
C        7.82086367       8.10263335      -7.85653345
N        8.18993134       6.81124279      -7.77198392
C        7.41539201       6.01862823      -7.00072738
Br       8.88381339       9.24948193      -8.92980405
H        1.05084716       3.98155406      -1.86516879
H        3.54926302       0.61870322      -2.73171126
H        5.16263536       8.26205433      -5.98983492
H        7.73416273       4.98076181      -6.94849484
C       -0.88571906      -0.88571906      -0.88571906
N       -1.87069841      -0.28355037      -1.57695141
C       -2.63325704      -1.08733346      -2.34814557
C       -2.44856398      -2.44861198      -2.45053497
C       -1.41236287      -2.95835395      -1.69998444
N       -0.61716322      -2.20413961      -0.91140835
C       -3.27179949      -3.26879416      -3.27552872
C       -3.96956792      -3.95105280      -3.97359709
C       -4.86509451      -4.81120373      -4.86809267
C       -5.57211969      -5.47732697      -5.57317826
C       -6.41515416      -6.26137939      -6.41333099
C       -7.43733409      -5.70924809      -7.15313052
N       -8.25124216      -6.42535207      -7.95772662
C       -8.01806246      -7.74954921      -8.01241880
N       -7.04939071      -8.39074976      -7.33301758
C       -6.26622141      -7.62417516      -6.54435105
Br      -9.13951297      -8.79108198      -9.13250443
H       -3.42183310      -0.57886203      -2.89687488
H       -1.17603566      -4.01923404      -1.70440780
H       -7.64557672      -4.64279013      -7.12615776
H       -5.49174580      -8.16505037      -6.00662322
C       -0.88571906       0.88571906       0.88571906
N       -1.22472420       0.40898424       2.09749174
C       -2.00376208       1.20997406       2.85499993
C       -2.44799975       2.44951481       2.45019636
C       -2.04114222       2.83686208       1.19269695
N       -1.26290992       2.07896415       0.39083712
C       -3.26930131       3.27101184       3.27580921
C       -3.95981393       3.95596121       3.97844267
C       -4.83930134       4.82145680       4.88363277
C       -5.52800414       5.49341421       5.60120657
C       -6.34464230       6.28584056       6.45938169
C       -6.72339772       5.86228297       7.71403200
N       -7.49488421       6.59017783       8.54925882
C       -7.89567037       7.79112523       8.09323486
N       -7.58480481       8.30108421       6.88726904
C       -6.81093889       7.52923887       6.09456987
Br      -8.98059959       8.84517777       9.23732201
H       -2.26437362       0.80410608       3.82909031
H       -2.33258448       3.79553004       0.77156298
H       -6.41262369       4.89689129       8.10500962
H       -6.57380717       7.96306688       5.12654533
C        0.88571906      -0.88571906       0.88571906
N        0.94038714      -2.19791583       0.59289722
C        1.72797244      -2.95240519       1.38835844
C        2.45027538      -2.44939264       2.44804290
C        2.31982970      -1.09426822       2.65660333
N        1.54782847      -0.29020765       1.89467506
C        3.27371435      -3.27425059       3.26815743
C        3.96511159      -3.97657161       3.95253461
C        4.84463498      -4.88174900       4.81800693
C        5.53251569      -5.59961315       5.49049608
C        6.34787044      -6.45824155       6.28375255
C        6.45497653      -7.80883482       6.03590135
N        7.21909684      -8.64666327       6.76856074
C        7.89846471      -8.09224794       7.78931782
N        7.86597572      -6.78796319       8.11921914
C        7.08518259      -5.99771062       7.35185442
Br       8.98458938      -9.23591286       8.84259712
H        1.75645967      -4.00847880       1.13263154
H        2.84443500      -0.59078415       3.46445836
H        5.91665405      -8.28017954       5.21769101
H        7.07595963      -4.94919172       7.63826803
