93
Properties=species:S:1:pos:R:3 pbc="F F F"
C        0.00000000       0.00000000       0.00000000
C        0.88571906       0.88571906      -0.88571906
N        0.54663331       2.18268500      -1.00188187
C        1.34419512       2.93786590      -1.78667504
C        2.44979798       2.44997044      -2.44794251
C        2.70300091       1.10954305      -2.25815729
N        1.94140757       0.30559275      -1.48571086
C        3.27190004       3.27548271      -3.26873960
C        3.95865882       3.97858779      -3.95697120
C        4.82803024       4.88504884      -4.83131183
C        5.50435949       5.60417721      -5.51408822
C        6.30307777       6.46460373      -6.32218305
C        6.01737256       7.80273484      -6.47960530
N        6.75503682       8.64221097      -7.23707305
C        7.82086367       8.10263335      -7.85653345
N        8.18993134       6.81124279      -7.77198392
C        7.41539201       6.01862823      -7.00072738
H        1.05084716       3.98155406      -1.86516879
H        3.54926302       0.61870322      -2.73171126
H        5.16263536       8.26205433      -5.98983492
H        7.73416273       4.98076181      -6.94849484
C        8.62791837       8.97338905      -8.67142438
C        9.30382667       9.70264696      -9.35389553
Br      10.39671324      10.88179531     -10.45739366
C       -0.88571906      -0.88571906      -0.88571906
N       -1.87291731      -0.28405919      -1.57422369
C       -2.63542003      -1.08782734      -2.34548870
C       -2.44856728      -2.44860859      -2.45053505
C       -1.41020407      -2.95785576      -1.70264142
N       -0.61494547      -2.20362993      -0.91413577
C       -3.27181105      -3.26878777      -3.27552354
C       -3.96960662      -3.95104594      -3.97356525
C       -4.86519215      -4.81119875      -4.86800001
C       -5.57228420      -5.47732543      -5.57301529
C       -6.41541494      -6.26138297      -6.41306663
C       -7.43981127      -5.70974095      -7.15016048
N       -8.25387119      -6.42586119      -7.95458846
C       -8.01851359      -7.74955968      -8.01195720
N       -7.04757624      -8.39025903      -7.33532277
C       -6.26436901      -7.62369382      -6.54668479
H       -3.42580979      -0.57977137      -2.89198886
H       -1.17206446      -4.01831884      -1.70929420
H       -7.64983720      -4.64369043      -7.12099697
H       -5.48804297      -8.16415884      -6.01121757
C       -8.87008792      -8.54035532      -8.86228856
C       -9.58328142      -9.20264666      -9.57444108
Br     -10.73645499     -10.27351574     -10.72593147
C       -0.88571906       0.88571906       0.88571906
N       -1.22510186       0.40878910       2.09730923
C       -2.00413001       1.20978373       2.85482233
C       -2.44799990       2.44951432       2.45019670
C       -2.04077448       2.83705178       1.19287499
N       -1.26253234       2.07915914       0.39101970
C       -3.26930238       3.27101038       3.27580959
C       -3.95981896       3.95595704       3.97844180
C       -4.83931525       4.82144688       4.88362878
C       -5.52802825       5.49339784       5.60119883
C       -6.34468112       6.28581490       6.45936853
C       -6.72381190       5.86206147       7.71383933
N       -7.49532239       6.58994207       8.54905639
C       -7.89573795       7.79108105       8.09321147
N       -7.58448859       8.30124017       6.88742930
C       -6.81061801       7.52939904       6.09473058
H       -2.26505020       0.80375623       3.82876359
H       -2.33190812       3.79587907       0.77189031
H       -6.41334123       4.89651288       8.10467049
H       -6.57317274       7.96339048       5.12685616
C       -8.71949608       8.59137044       8.96186528
C       -9.40939351       9.26161280       9.68936285
Br     -10.52489930      10.34533801      10.86566488
C        0.88571906      -0.88571906       0.88571906
N        0.94166927      -2.19763740       0.59189351
C        1.72922185      -2.95213307       1.38738116
C        2.45027646      -2.44939086       2.44804360
C        2.31858166      -1.09453807       2.65758152
N        1.54654677      -0.29048557       1.89567883
C        3.27371921      -3.27424614       3.26815700
C        3.96513078      -3.97656155       3.95252547
C        4.84468589      -4.88172771       4.81797732
C        5.53260285      -5.59957953       5.49044254
C        6.34800981      -6.45819025       6.28366448
C        6.45639278      -7.80849913       6.03482079
N        7.22059710      -8.64630239       6.76742136
C        7.89870668      -8.09216061       7.78916318
N        7.86491225      -6.78816621       8.12007959
C        7.08410084      -5.99792437       7.35272241
H        1.75875698      -4.00797895       1.13083409
H        2.84213942      -0.59128096       3.46625712
H        5.91910043      -8.27961959       5.21580458
H        7.07381151      -4.94964234       7.63996553
C        8.72341199      -8.96047914       8.58884066
C        9.41410269      -9.68769591       9.25857055
Br      10.53089113     -10.86354392      10.34146714
