94
Properties=species:S:1:pos:R:3 pbc="F F F"
C        1.83205830       1.83205830      -1.83205830
C        2.67353079       0.97007485      -2.76585657
C        1.86689797       0.42316184      -3.94342185
N        1.15449132       1.47771767      -4.65805793
C        0.25006312       2.19504041      -3.77039330
C        0.97548086       2.83903292      -2.59072258
H        2.47860604       2.35211348      -1.11743690
H        3.14347992       0.14050867      -2.22480580
H        3.49155108       1.58550213      -3.16299946
H        2.54612535      -0.07899133      -4.64263592
H        1.15719370      -0.34265705      -3.60707613
H        1.81366337       2.14173593      -5.06216060
H       -0.57160702       1.55022358      -3.44285152
H        1.63765094       3.63715846      -2.95558741
H        0.25525366       3.32653304      -1.92094460
C       -0.37640866       3.23300667      -4.54741270
C       -0.90107878       4.10230342      -5.19816644
Br      -1.74942598       5.50788273      -6.25038020
C       -1.83205830      -1.83205830      -1.83205830
C       -1.38169671      -3.28539942      -1.74236609
C       -1.83006527      -3.95823502      -0.44518136
N       -3.26394638      -3.80968871      -0.21663183
C       -3.64480597      -2.40511399      -0.16557686
C       -3.29743722      -1.65689074      -1.45090841
H       -1.65834160      -1.44732642      -2.84248841
H       -0.29355108      -3.37097475      -1.84426855
H       -1.81741976      -3.83629253      -2.58634038
H       -1.59006025      -5.02714100      -0.49256868
H       -1.27388023      -3.56014777       0.41241523
H       -3.79187937      -4.26657240      -0.95910814
H       -3.22395913      -1.91637127       0.71886232
H       -3.90919588      -2.04202976      -2.27917117
H       -3.55447302      -0.59408241      -1.35417587
C       -5.07145930      -2.35641864       0.02386723
C       -6.26628145      -2.31563629       0.18252666
Br      -8.19820782      -2.24969467       0.43906553
C       -1.83205830       1.83205830       1.83205830
C       -3.15574901       1.13355239       2.12016082
C       -3.02110422       0.03644435       3.17593308
N       -2.37662722       0.52113923       4.39250047
C       -1.05215665       1.05531412       4.10802606
C       -1.08823348       2.20905601       3.10794688
H       -2.00403535       2.72385431       1.22026676
H       -3.59011043       0.71296567       1.20571830
H       -3.87000363       1.88194109       2.48810795
H       -4.01832807      -0.34075665       3.43219852
H       -2.46544180      -0.82133158       2.77750256
H       -2.93936489       1.25167138       4.82652363
H       -0.36834640       0.26111789       3.79200379
H       -1.60374833       3.07034742       3.55630106
H       -0.06936227       2.55018523       2.88318380
C       -0.51177773       1.54090997       5.35132300
C       -0.05921039       1.94759650       6.39258419
Br       0.67255273       2.60517422       8.07621547
C        1.83205830      -1.83205830       1.83205830
C        1.22376315      -3.22350041       1.96219866
C        1.44277145      -4.07730460       0.71340560
N        2.84733702      -4.12368237       0.31924753
C        3.36528093      -2.78702177       0.06319413
C        3.25254374      -1.87192893       1.28076370
H        1.82011968      -1.32529933       2.80273741
H        0.15229210      -3.16902515       2.18747714
H        1.69547529      -3.72996135       2.81461603
H        1.09882232      -5.09950175       0.91144586
H        0.83441674      -3.70896617      -0.12177013
H        3.40803628      -4.55886966       1.05065397
H        2.89694514      -2.34794400      -0.82342105
H        3.91367979      -2.23712016       2.07959686
H        3.60685192      -0.86295556       1.03292382
C        4.75680508      -2.92702640      -0.27982078
C        5.92220657      -3.04428028      -0.56709576
Br       7.80656219      -3.23386988      -1.03159511
C       -0.00445707       0.01189536      -1.78238275
H       -0.66409135       0.67374010      -2.43557963
H        0.65740317      -0.63156657      -2.45157240
C       -0.90989263      -0.90692880      -0.91072765
C        0.90977584       0.90977584      -0.90977584
C       -0.00465871       1.77757030       0.00794375
H       -0.66225468       2.44313916      -0.64384735
H        0.64322798       2.43503045       0.67728295
C       -1.78241447       0.00034974      -0.00472694
H       -2.45427497      -0.65498947       0.64260836
H       -2.43311707       0.67328779      -0.65473579
C       -0.91132561       0.90220522       0.91563759
C       -0.01476271      -0.02253852       1.78660255
H       -0.67934791      -0.69751639       2.42135241
H        0.63392994       0.61504881       2.47327442
C        0.01484550      -1.77751727      -0.01636693
H        0.67870853      -2.42144646      -0.68295456
H       -0.62264859      -2.45592969       0.64226336
C        1.78714474       0.01002794       0.00389507
H        2.44202412       0.67113390       0.66197326
H        2.45385902      -0.65136977      -0.64189061
C        0.91606151      -0.90478549       0.90901405
