154
Properties=species:S:1:pos:R:3 pbc="F F F"
C        1.82508669       1.82508669      -1.82508669
H        1.71038851       1.34988162      -2.80661132
N        1.26292591       3.16030168      -1.91014403
C        1.58874694       3.99489908      -0.76355168
C        3.09577183       4.16165091      -0.61852227
C        3.86231404       2.83687581      -0.49331001
H        4.86655260       3.04581021      -0.89349537
C        3.30151911       1.74382720      -1.43394745
C        4.14140111       2.34845650       0.96125509
H        4.53069159       1.32231130       0.89290854
C        2.93440926       2.32568362       1.90856131
C        3.33223463       1.84863682       3.30740312
N        4.38585719       2.67541544       3.88934067
C        5.56383668       2.69627990       3.03487488
H        6.04957405       1.71476067       3.01435503
C        5.25766001       3.19230064       1.62132524
H        0.25065862       3.07427611      -1.99246153
H        1.14269393       4.98394232      -0.91983881
H        1.13952606       3.59990667       0.15239357
H        3.46585175       4.68474054      -1.51157811
H        3.31231112       4.82895911       0.22263992
H        3.86201967       1.85372905      -2.37488759
H        3.56240534       0.74417771      -1.06644045
H        2.16284640       1.65721490       1.52849911
H        2.49265872       3.32512782       1.99332816
H        2.45574485       1.88034752       3.96364003
H        3.65779139       0.80203500       3.27269540
H        4.05311181       3.63275624       3.99742475
H        4.96045006       4.24836109       1.64780518
H        6.16843487       3.14175671       1.01097031
C        6.52031387       3.58577258       3.64113733
C        7.32136351       4.33072271       4.14888212
Br       8.61659304       5.53524406       4.96986251
C       -1.82508669      -1.82508669      -1.82508669
H       -2.80372837      -1.72174771      -1.34140536
N       -1.92492852      -1.25327369      -3.15516941
C       -0.78240029      -1.56364702      -4.00115039
C       -0.62699975      -3.06815488      -4.18079039
C       -0.48550259      -3.84394228      -2.86305499
H       -0.87951104      -4.84962686      -3.07672027
C       -1.42189073      -3.29900376      -1.75839927
C        0.97495382      -4.11543462      -2.38812172
H        0.91764626      -4.51319034      -1.36455026
C        1.91302379      -2.90129137      -2.36326399
C        3.31859191      -3.29186202      -1.90019824
N        3.90220267      -4.33446491      -2.73966972
C        3.05675752      -5.51888702      -2.76311219
H        3.04767277      -6.01236418      -1.78528827
C        1.63704468      -5.21992735      -3.24575275
H       -2.01441620      -0.24237771      -3.06060235
H       -0.94986295      -1.11117484      -4.98543727
H        0.13309302      -1.11035937      -3.60977282
H       -1.52121933      -3.44113451      -4.69981656
H        0.21057664      -3.27293620      -4.85627076
H       -2.35928743      -3.86596971      -1.86537918
H       -1.04457357      -3.56475240      -0.76369753
H        1.53222589      -2.13792664      -1.68586144
H        1.98655259      -2.45115747      -3.35985350
H        3.96774664      -2.41005250      -1.93014648
H        3.29458689      -3.62578365      -0.85593423
H        4.00022126      -3.99347379      -3.69519076
H        1.65296829      -4.91434176      -4.29963249
H        1.03418209      -6.13580740      -3.19759595
C        3.66344864      -6.46367421      -3.66472355
C        4.17155245      -7.25493349      -4.41982306
Br       4.99311335      -8.53433282      -5.64075510
C       -1.82508669       1.82508669       1.82508669
H       -1.57451546       1.46303787       2.82932811
N       -1.39414442       3.20769132       1.73153587
C       -1.90492632       3.89007471       0.55219668
C       -3.42798841       3.90362824       0.54432837
C       -4.06613131       2.50874625       0.61762230
H       -5.04564839       2.66447455       1.09573524
C       -3.31538255       1.57103533       1.59287588
C       -4.42607039       1.85368204      -0.75114991
H       -4.70274214       0.80840415      -0.55105194
C       -3.31410416       1.84603161      -1.80860421
C       -3.78775784       1.19701396      -3.11130346
N       -4.96747953       1.86200098      -3.65754855
C       -6.05895720       1.86109815      -2.69481367
H       -6.44001173       0.84646725      -2.53649930
C       -5.67667167       2.52204923      -1.37008548
H       -0.37508214       3.22281698       1.71949714
H       -1.54785625       4.92626491       0.57235390
H       -1.50360874       3.44781865      -0.36438823
H       -3.76581115       4.47771074       1.41864851
H       -3.78593952       4.46080932      -0.32811852
H       -3.79611602       1.72320277       2.57131752
H       -3.50714708       0.52002208       1.34585434
H       -2.44807858       1.29200417      -1.44852055
H       -2.98427391       2.86798254      -2.02779808
H       -2.98222551       1.24243601      -3.85220919
H       -4.00229363       0.13389664      -2.94905928
H       -4.74355445       2.82998066      -3.88509182
H       -5.49042087       3.59278311      -1.52219802
H       -6.51846157       2.45025020      -0.66949051
C       -7.15092472       2.59462462      -3.28060021
C       -8.06544751       3.20895303      -3.77119644
Br      -9.54415352       4.20227011      -4.56444906
C        1.82508669      -1.82508669       1.82508669
H        2.77566095      -1.81259390       1.27862660
N        2.04241773      -1.18279165       3.10816224
C        0.93914874      -1.36969890       4.03835007
C        0.70638540      -2.84808500       4.32147462
C        0.43623022      -3.69022645       3.06604318
H        0.78255968      -4.70431403       3.31898447
C        1.33173091      -3.27197845       1.87558439
C       -1.06481721      -3.89672441       2.69669531
H       -1.09591886      -4.35734347       1.69866973
C       -1.92887833      -2.62942576       2.65098414
C       -3.38156142      -2.95731374       2.29771603
N       -3.97187757      -3.90935345       3.23445608
C       -3.19841865      -5.14128182       3.28237852
H       -3.28035553      -5.69150475       2.33883046
C       -1.73584530      -4.90439140       3.66008932
H        2.18559165      -0.18695427       2.94485035
H        1.19494386      -0.87108382       4.98044737
H        0.02929944      -0.88357109       3.67416864
H        1.60786160      -3.24528913       4.80901968
H       -0.09757079      -2.95915835       5.05704275
H        2.23870908      -3.88961654       1.96231069
H        0.87729371      -3.57194761       0.92378218
H       -1.54695673      -1.93315894       1.90535998
H       -1.91253126      -2.11720300       3.61978664
H       -3.97405672      -2.03607845       2.31043061
H       -3.44335805      -3.35346515       1.27702389
H       -3.98899665      -3.50675500       4.17068495
H       -1.66707241      -4.53640884       4.69166954
H       -1.19263899      -5.85772857       3.63413169
C       -3.80200252      -5.99072949       4.27622216
C       -4.30750402      -6.70214191       5.10856620
Br      -5.12485718      -7.85243563       6.45439612
C       -0.00445707       0.01189536      -1.78238275
H       -0.66409135       0.67374010      -2.43557963
H        0.65740317      -0.63156657      -2.45157240
C       -0.90989263      -0.90692880      -0.91072765
C        0.90977584       0.90977584      -0.90977584
C       -0.00465871       1.77757030       0.00794375
H       -0.66225468       2.44313916      -0.64384735
H        0.64322798       2.43503045       0.67728295
C       -1.78241447       0.00034974      -0.00472694
H       -2.45427497      -0.65498947       0.64260836
H       -2.43311707       0.67328779      -0.65473579
C       -0.91132561       0.90220522       0.91563759
C       -0.01476271      -0.02253852       1.78660255
H       -0.67934791      -0.69751639       2.42135241
H        0.63392994       0.61504881       2.47327442
C        0.01484550      -1.77751727      -0.01636693
H        0.67870853      -2.42144646      -0.68295456
H       -0.62264859      -2.45592969       0.64226336
C        1.78714474       0.01002794       0.00389507
H        2.44202412       0.67113390       0.66197326
H        2.45385902      -0.65136977      -0.64189061
C        0.91606151      -0.90478549       0.90901405
