154
Properties=species:S:1:pos:R:3 pbc="F F F"
C        1.82812500       1.82812500      -1.82812500
H        1.13446271       2.42942430      -2.42693059
C        2.68500523       0.95044335      -2.72902703
C        3.66950984       1.81035305      -3.51345990
N        4.48131934       2.64103665      -2.62559434
C        3.66511316       3.55399807      -1.81439185
H        3.06413799       4.17495463      -2.49353072
C        2.68874537       2.72903240      -0.94845900
C        4.51335305       4.53913193      -0.92729332
H        3.76777241       4.98421027      -0.25220155
N        5.49060914       3.91984315      -0.01654333
C        6.81795029       3.70605838      -0.57986693
C        7.42787931       4.99713464      -1.10089084
C        6.53959744       5.67381658      -2.12842977
H        6.91247223       6.68849353      -2.31073574
C        5.08128243       5.75173684      -1.70033966
H        2.05465051       0.38328444      -3.42441828
H        3.23966224       0.21210579      -2.13478035
H        4.33305191       1.16436543      -4.09843606
H        3.13701742       2.44372437      -4.23300142
H        5.03139101       2.04288496      -2.01075652
H        3.24242643       2.12322461      -0.21950222
H        2.04445405       3.40280426      -0.36936911
H        5.12821872       3.04340744       0.35276805
H        7.46402865       3.31615577       0.21522405
H        6.81036005       2.94007907      -1.35921242
H        7.56986593       5.68341550      -0.25525712
H        8.42626106       4.79798959      -1.50626788
H        5.01636568       6.60896009      -1.01297638
H        4.43171954       6.01259523      -2.54483867
C        6.68426160       5.05664568      -3.42140013
C        6.80541783       4.53976504      -4.50426280
Br       7.00131721       3.70401277      -6.25516017
C       -1.82812500      -1.82812500      -1.82812500
H       -1.15872607      -2.24011995      -2.59197158
C       -2.91245525      -0.97782360      -2.47419676
C       -3.88353811      -1.86559446      -3.24419022
N       -4.44405829      -2.91247798      -2.39141406
C       -3.40826821      -3.79191531      -1.83331955
H       -2.83905229      -4.22653049      -2.66704056
C       -2.42878105      -2.94999944      -0.98745628
C       -3.98495943      -4.99554845      -0.99927042
H       -3.09799636      -5.40900085      -0.49718702
N       -4.88917242      -4.64717842       0.10935522
C       -6.30099580      -4.56004885      -0.24283095
C       -6.81112011      -5.84949813      -0.86528655
C       -6.00397807      -6.25231803      -2.08554769
H       -6.26717449      -7.27906946      -2.36545755
C       -4.50078487      -6.16975810      -1.86281596
H       -2.46817849      -0.24054694      -3.15362782
H       -3.46362047      -0.41046119      -1.71246671
H       -4.70242543      -1.25452266      -3.63890531
H       -3.38583688      -2.31726848      -4.11063784
H       -4.96984885      -2.48458741      -1.63059623
H       -2.94237732      -2.52966701      -0.11310892
H       -1.62610024      -3.59039598      -0.60013120
H       -4.59126406      -3.78140100       0.55380696
H       -6.86803914      -4.37347144       0.67655021
H       -6.50526490      -3.70822813      -0.89615851
H       -6.73913925      -6.65126182      -0.11813747
H       -7.87524699      -5.74868439      -1.10658715
H       -4.22723122      -7.08875054      -1.32232039
H       -3.95399991      -6.22294012      -2.81221340
C       -6.41385634      -5.50332834      -3.24512272
C       -6.75712939      -4.87604948      -4.21626681
Br      -7.31217288      -3.86179261      -5.78652467
C       -1.82812500       1.82812500       1.82812500
H       -2.84350704       1.71645931       1.43085124
C       -1.37054679       3.27546398       1.71846484
C       -2.14904072       4.14553808       2.69874399
N       -2.04215462       3.63958586       4.06620984
C       -2.56316293       2.27248645       4.19785370
H       -3.60808880       2.26740352       3.85713103
C       -1.76427602       1.33277256       3.26918819
C       -2.56420570       1.73757844       5.67799415
H       -2.77620790       0.66440742       5.56356892
N       -1.27267423       1.76999205       6.38432935
C       -0.99115902       3.00213752       7.11057907
C       -2.07794008       3.32492802       8.12303668
C       -3.44934600       3.41308625       7.47941154
H       -4.21288695       3.43298738       8.26582718
C       -3.74228279       2.25697869       6.53409745
H       -1.51690643       3.64796528       0.69748153
H       -0.29650605       3.35828748       1.93175485
H       -1.75882777       5.16857349       2.66845214
H       -3.20376116       4.20525520       2.40472685
H       -1.06646571       3.65902595       4.35954083
H       -0.71885992       1.26858063       3.59771271
H       -2.17298715       0.31593628       3.32770399
H       -0.50977454       1.56717742       5.74190615
H       -0.04640929       2.86837383       7.65017725
H       -0.83038240       3.84516451       6.43410462
H       -2.09769526       2.53010745       8.88073584
H       -1.82653464       4.24985736       8.65412654
H       -4.04724359       1.41585265       7.17520591
H       -4.61569096       2.46835943       5.90510305
C       -3.63658651       4.68835708       6.83736381
C       -3.79340044       5.75639641       6.29964883
Br      -4.04695529       7.48332566       5.43020920
C        1.82812500      -1.82812500       1.82812500
H        2.81770599      -1.81602744       1.35708416
C        1.26841546      -3.24315304       1.85290710
C        2.05522192      -4.09933693       2.83876394
N        2.08028265      -3.49700782       4.17065986
C        2.69934032      -2.16490189       4.16926086
H        3.71525907      -2.25721793       3.76014635
C        1.90056881      -1.23451363       3.23115432
C        2.84179436      -1.53395576       5.60402818
H        3.11614851      -0.48869684       5.39933889
N        1.60475153      -1.42684610       6.39539800
C        1.29433434      -2.58456490       7.22497636
C        2.42673597      -2.91596668       8.18320213
C        3.73971376      -3.14459765       7.45753237
H        4.55446347      -3.16653300       8.19070504
C        4.04077656      -2.07797272       6.41460964
H        1.31629216      -3.69239229       0.85366879
H        0.20923352      -3.23462044       2.14269441
H        1.59651210      -5.09161441       2.90772688
H        3.07990564      -4.25372912       2.48010845
H        1.12892621      -3.42708656       4.52901971
H        0.88790879      -1.07403244       3.62321203
H        2.37929164      -0.24784577       3.18949001
H        0.81312219      -1.21331933       5.79241658
H        0.40157819      -2.34796648       7.81541570
H        1.02979279      -3.45716629       6.62269246
H        2.55352093      -2.07585014       8.87916749
H        2.15282055      -3.78310131       8.79459667
H        4.44615857      -1.21992289       6.97222069
H        4.85097090      -2.39267886       5.74550368
C        3.79516819      -4.46994509       6.89719412
C        3.84161127      -5.57992357       6.42791083
Br       3.91670581      -7.37466490       5.66911944
C       -0.00445707       0.01189536      -1.78238275
H       -0.66409135       0.67374010      -2.43557963
H        0.65740317      -0.63156657      -2.45157240
C       -0.90989263      -0.90692880      -0.91072765
C        0.90977584       0.90977584      -0.90977584
C       -0.00465871       1.77757030       0.00794375
H       -0.66225468       2.44313916      -0.64384735
H        0.64322798       2.43503045       0.67728295
C       -1.78241447       0.00034974      -0.00472694
H       -2.45427497      -0.65498947       0.64260836
H       -2.43311707       0.67328779      -0.65473579
C       -0.91132561       0.90220522       0.91563759
C       -0.01476271      -0.02253852       1.78660255
H       -0.67934791      -0.69751639       2.42135241
H        0.63392994       0.61504881       2.47327442
C        0.01484550      -1.77751727      -0.01636693
H        0.67870853      -2.42144646      -0.68295456
H       -0.62264859      -2.45592969       0.64226336
C        1.78714474       0.01002794       0.00389507
H        2.44202412       0.67113390       0.66197326
H        2.45385902      -0.65136977      -0.64189061
C        0.91606151      -0.90478549       0.90901405
