146
Properties=species:S:1:pos:R:3 pbc="F F F"
C        1.82812500       1.82812500      -1.82812500
H        1.13446271       2.42942430      -2.42693059
C        2.68500523       0.95044335      -2.72902703
C        3.66950984       1.81035305      -3.51345990
N        4.48131934       2.64103665      -2.62559434
C        3.66511316       3.55399807      -1.81439185
H        3.06413799       4.17495463      -2.49353072
C        2.68874537       2.72903240      -0.94845900
C        4.51335305       4.53913193      -0.92729332
H        3.76777241       4.98421027      -0.25220155
N        5.49060914       3.91984315      -0.01654333
C        6.81795029       3.70605838      -0.57986693
C        7.42787931       4.99713464      -1.10089084
C        6.53959744       5.67381658      -2.12842977
H        6.91247223       6.68849353      -2.31073574
C        5.08128243       5.75173684      -1.70033966
Br       6.73582389       4.83666895      -3.88225042
H        2.05465051       0.38328444      -3.42441828
H        3.23966224       0.21210579      -2.13478035
H        4.33305191       1.16436543      -4.09843606
H        3.13701742       2.44372437      -4.23300142
H        5.03139101       2.04288496      -2.01075652
H        3.24242643       2.12322461      -0.21950222
H        2.04445405       3.40280426      -0.36936911
H        5.12821872       3.04340744       0.35276805
H        7.46402865       3.31615577       0.21522405
H        6.81036005       2.94007907      -1.35921242
H        7.56986593       5.68341550      -0.25525712
H        8.42626106       4.79798959      -1.50626788
H        5.01636568       6.60896009      -1.01297638
H        4.43171954       6.01259523      -2.54483867
C       -1.82812500      -1.82812500      -1.82812500
H       -2.84336513      -1.71715981      -1.43029266
C       -1.36977511      -3.27529105      -1.71940944
C       -2.14832372      -4.14526511      -2.69973395
N       -2.04236658      -3.63858220      -4.06700154
C       -2.56411768      -2.27167625      -4.19770914
H       -3.60887684      -2.26728040      -3.85646610
C       -1.76523622      -1.33202672      -3.26897383
C       -2.56615963      -1.73603522      -5.67758344
H       -2.77863697      -0.66302632      -5.56252095
N       -1.27496269      -1.76745821      -6.38457472
C       -0.99319697      -2.99910379      -7.11157485
C       -2.08031986      -3.32193132      -8.12365360
C       -3.45136256      -3.41108866      -7.47939257
H       -4.21528345      -3.43097863      -8.26543942
C       -3.74440353      -2.25559523      -6.53336017
Br      -3.70405137      -5.14145839      -6.60923349
H       -1.51544375      -3.64837092      -0.69853857
H       -0.29579936      -3.35747618      -1.93327284
H       -1.75758875      -5.16812177      -2.67014288
H       -3.20286849      -4.20565102      -2.40522370
H       -1.06681375      -3.65739302      -4.36082572
H       -0.72001511      -1.26715353      -3.59798462
H       -2.17448029      -0.31536437      -3.32678275
H       -0.51184513      -1.56458373      -5.74242925
H       -0.04878137      -2.86460415      -7.65157485
H       -0.83166705      -3.84238616      -6.43559833
H       -2.10084477      -2.52674517      -8.88094861
H       -1.82871940      -4.24647250      -8.65532663
H       -4.05009912      -1.41430285      -7.17390018
H       -4.61739479      -2.46772083      -5.90403782
C       -1.82812500       1.82812500       1.82812500
H       -1.16161391       2.22865943       2.60054425
C       -2.92432074       0.98143014       2.45872472
C       -3.89445467       1.87080460       3.22806351
N       -4.43978607       2.92889024       2.37927401
C       -3.39260070       3.80440881       1.83649356
H       -2.82664628       4.22780931       2.67816775
C       -2.41309067       2.96142211       0.99172398
C       -3.95300628       5.01921479       1.00755723
H       -3.05879091       5.42952530       0.51586803
N       -4.85104846       4.68692287      -0.11097571
C       -6.26629611       4.60831091       0.22926858
C       -6.77112621       5.89681773       0.85796085
C       -5.97061042       6.28344648       2.08778689
H       -6.22787190       7.31001644       2.37381316
C       -4.46638466       6.19061878       1.87635549
Br      -6.54722177       5.25951377       3.64800771
H       -2.49137574       0.23524075       3.13573676
H       -3.47385749       0.42457405       1.68811683
H       -4.72130912       1.26319525       3.61134902
H       -3.40013701       2.31157571       4.10203050
H       -4.96284854       2.51128656       1.61089739
H       -2.92298998       2.55218074       0.10998253
H       -1.60226783       3.59842544       0.61593414
H       -4.55647953       3.82234636      -0.55996779
H       -6.82742035       4.43359582      -0.69605580
H       -6.48255694       3.75298826       0.87410633
H       -6.68679136       6.70389212       0.11785506
H       -7.83791986       5.80261813       1.08998054
H       -4.18121378       7.11165697       1.34543139
H       -3.92681824       6.23187072       2.83046448
C        1.82812500      -1.82812500       1.82812500
H        2.82404863      -1.79508787       1.37168110
C        1.28866394      -3.25120709       1.82460457
C        2.07363415      -4.11025845       2.80943018
N        2.07096165      -3.52697908       4.15000960
C        2.67062541      -2.18629353       4.17658413
H        3.69350927      -2.25816911       3.78094496
C        1.87193684      -1.25391521       3.24038471
C        2.78343955      -1.57421707       5.62212168
H        3.04552511      -0.52229537       5.43636376
N        1.53380791      -1.49624083       6.39694689
C        1.22837706      -2.67016084       7.20533770
C        2.35166767      -2.99920648       8.17503064
C        3.67804032      -3.19854642       7.46525704
H        4.48247602      -3.21946456       8.20976092
C        3.97848222      -2.11274620       6.44213050
Br       3.79011885      -4.98383529       6.68078912
H        1.35729499      -3.68520349       0.81985476
H        0.22544176      -3.26198746       2.09911916
H        1.62840093      -5.10987561       2.85757685
H        3.10545979      -4.24480281       2.46348062
H        1.11367531      -3.47583747       4.49551971
H        0.85156758      -1.11359511       3.61999057
H        2.33687057      -0.26001613       3.21974072
H        0.74785600      -1.28532580       5.78567631
H        0.32395374      -2.45490022       7.78610642
H        0.98511879      -3.53763747       6.58689528
H        2.45633118      -2.16753022       8.88467715
H        2.08163775      -3.87892263       8.76995815
H        4.36340005      -1.25716140       7.01774069
H        4.80261428      -2.40613774       5.78040142
C       -0.00445707       0.01189536      -1.78238275
H       -0.66409135       0.67374010      -2.43557963
H        0.65740317      -0.63156657      -2.45157240
C       -0.90989263      -0.90692880      -0.91072765
C        0.90977584       0.90977584      -0.90977584
C       -0.00465871       1.77757030       0.00794375
H       -0.66225468       2.44313916      -0.64384735
H        0.64322798       2.43503045       0.67728295
C       -1.78241447       0.00034974      -0.00472694
H       -2.45427497      -0.65498947       0.64260836
H       -2.43311707       0.67328779      -0.65473579
C       -0.91132561       0.90220522       0.91563759
C       -0.01476271      -0.02253852       1.78660255
H       -0.67934791      -0.69751639       2.42135241
H        0.63392994       0.61504881       2.47327442
C        0.01484550      -1.77751727      -0.01636693
H        0.67870853      -2.42144646      -0.68295456
H       -0.62264859      -2.45592969       0.64226336
C        1.78714474       0.01002794       0.00389507
H        2.44202412       0.67113390       0.66197326
H        2.45385902      -0.65136977      -0.64189061
C        0.91606151      -0.90478549       0.90901405
