101
Properties=species:S:1:pos:R:3 pbc="F F F"
C        0.00000000       0.00000000       0.00000000
C        0.88176950       0.88176950      -0.88176950
C        0.60439943       2.24431210      -0.99391412
C        1.40156881       3.04684426      -1.81423352
C        2.46942476       2.48580719      -2.51908632
C        2.74802543       1.12179932      -2.39416271
C        1.95165211       0.31731190      -1.57410632
C        3.24910576       3.29704730      -3.40102524
C        3.86137236       3.96656154      -4.18875450
C        4.53632232       4.74614764      -5.17868565
C        4.17798479       6.08159734      -5.38109618
C        4.79940606       6.82901199      -6.38510569
C        5.77809966       6.23711066      -7.18131331
C        6.14865258       4.90774274      -6.97856828
C        5.52622110       4.16166927      -5.97435014
H       -0.22975420       2.68722359      -0.45690225
H        1.17580984       4.10670206      -1.90848783
H        3.57497011       0.67640447      -2.94159469
H        2.16990110      -0.74433976      -1.49048794
H        3.40655470       6.54280567      -4.76891217
H        4.50700801       7.86414203      -6.54111559
H        6.90972488       4.44260140      -7.59849336
H        5.80889280       3.12196357      -5.82598349
C        6.40675892       7.00154938      -8.22726789
C        6.93326104       7.64176681      -9.10325485
Br       7.78457045       8.67694424     -10.51965168
C       -0.88176950      -0.88176950      -0.88176950
C       -1.68572733      -0.29668227      -1.86021605
C       -2.50472891      -1.10292444      -2.65499324
C       -2.51850684      -2.48743858      -2.46837286
C       -1.70282069      -3.06810263      -1.49306414
C       -0.88290174      -2.26322827      -0.69694031
C       -3.39825098      -3.30485756      -3.24406977
C       -4.18364061      -3.98095843      -3.85208936
C       -5.17023256      -4.76994525      -4.52097782
C       -6.06125473      -4.16677831      -5.41264525
C       -7.06070074      -4.92704041      -6.02578260
C       -7.16315064      -6.28824317      -5.74512981
C       -6.27102187      -6.89966550      -4.86427622
C       -5.27231942      -6.13806398      -4.25185711
H       -1.68847071       0.77995431      -2.00585523
H       -3.13893543      -0.64267966      -3.40938463
H       -1.70978957      -4.14424865      -1.33893106
H       -0.25899507      -2.72262534       0.06557113
H       -5.99092457      -3.10253050      -5.62481746
H       -7.75496024      -4.44686117      -6.71044423
H       -6.34909124      -7.95998559      -4.64174281
H       -4.58523363      -6.61498944      -3.55661679
C       -8.20337047      -7.06882668      -6.36337903
C       -9.07455457      -7.72256538      -6.88116275
Br     -10.48318559      -8.77960555      -7.71837523
C       -0.88176950       0.88176950       0.88176950
C       -0.32878823       1.98980531       1.52403211
C       -1.13262558       2.78603071       2.34399030
C       -2.48250819       2.47181077       2.51999932
C       -3.03254732       1.36607370       1.86536643
C       -2.23001010       0.56828990       1.04477033
C       -3.28967324       3.25443907       3.40306600
C       -3.94832451       3.87456232       4.19380156
C       -4.70607425       4.56530547       5.18977590
C       -4.11789094       5.59823876       5.92454860
C       -4.84015969       6.23784685       6.93551720
C       -6.14875064       5.84200619       7.20576679
C       -6.74634193       4.81888260       6.46973906
C       -6.02275190       4.18018994       5.45929867
H        0.72213614       2.23607099       1.40043678
H       -0.69586948       3.64270027       2.85242998
H       -4.08117989       1.11246052       1.99932886
H       -2.66410434      -0.29526186       0.54720681
H       -3.09309535       5.90156352       5.72361366
H       -4.37070137       7.03364488       7.50791939
H       -7.76543423       4.50648041       6.67890500
H       -6.48720489       3.37497632       4.89465865
C       -6.88781721       6.48901590       8.25874307
C       -7.50678547       7.03088652       9.14061071
Br      -8.50760479       7.90704549      10.56651609
C        0.88176950      -0.88176950       0.88176950
C        1.05900909      -0.55684124       2.22677532
C        1.87950755      -1.35473149       3.02840755
C        2.51966588      -2.47078328       2.48386912
C        2.32956095      -2.79648473       1.13794178
C        1.50921609      -1.99947516       0.33437907
C        3.40271106      -3.25334533       3.29112191
C        4.19246257      -3.87043624       3.95378958
C        5.18609882      -4.55397459       4.72108222
C        5.45549797      -4.15286365       6.03231668
C        6.46396369      -4.78475914       6.76480092
C        7.19753335      -5.81663493       6.18235535
C        6.92757337      -6.22969471       4.87769551
C        5.91899199      -5.59673057       4.14651795
H        0.57269881       0.31459577       2.65626859
H        2.02477071      -1.09227602       4.07395300
H        2.82645340      -3.66123702       0.70527885
H        1.37478983      -2.25492743      -0.71366797
H        4.89244888      -3.34033704       6.48548662
H        6.67246304      -4.45919400       7.78060860
H        7.49859295      -7.03234114       4.41988554
H        5.71831540      -5.91306683       3.12545763
C        8.24828255      -6.45678188       6.93051175
C        9.12828499      -6.99290496       7.55709274
Br      10.55117453      -7.85977062       8.57022121
