181
Properties=species:S:1:pos:R:3 pbc="F F F"
C        0.00000000       0.00000000       0.00000000
C        0.88245534       0.88245534      -0.88245534
C        0.63776552       2.25260409      -0.95885600
C        1.44437896       3.05406610      -1.77025415
C        2.48990736       2.48407803      -2.50034454
C        2.73059028       1.11063700      -2.41811902
C        1.92528257       0.30767774      -1.60711411
C        3.30020245       3.30531636      -3.34559416
C        3.95223043       4.00078892      -4.07625021
C        4.68564760       4.83430040      -4.97793118
C        4.20825139       6.10600436      -5.29122524
C        4.89469712       6.90612723      -6.20918470
C        6.06811267       6.45027079      -6.83282498
C        6.54399085       5.17392254      -6.49151399
C        5.85967748       4.37204540      -5.57119351
C        6.75234828       7.27655069      -7.83942595
C        7.14523325       8.59428422      -7.55344388
C        7.74501598       9.39623641      -8.53077013
C        7.96170280       8.89104267      -9.81242135
C        7.59593004       7.57851849     -10.10919586
C        6.99799687       6.77913707      -9.13003418
C        8.52575306       9.72165619     -10.83056958
C        8.96312756      10.41697283     -11.70728628
C        9.44947129      11.24081282     -12.77017999
C        9.50536636      12.62811773     -12.61199489
C        9.96224276      13.43423731     -13.65801214
C       10.36118783      12.84790860     -14.85861556
C       10.30953692      11.46425676     -15.02270703
C        9.85264351      10.65979017     -13.97565290
Br      10.97343606      13.93784851     -16.27654719
H       -0.17432256       2.70567664      -0.39772712
H        1.24911421       4.12184617      -1.83177872
H        3.53978459       0.65781332      -2.98542254
H        2.11647508      -0.75981238      -1.55037302
H        3.29278938       6.47765511      -4.83893214
H        4.48864435       7.88500118      -6.45714873
H        7.45635511       4.79165113      -6.94535115
H        6.24551251       3.38474717      -5.33291445
H        6.98188771       9.00839463      -6.56032591
H        8.02805984      10.41654278      -8.28467836
H        7.75550791       7.17318267     -11.10528417
H        6.69670754       5.76663682      -9.39209861
H        9.19046612      13.08870683     -11.67850475
H        9.99973344      14.51244287     -13.52716171
H       10.61806846      11.00362298     -15.95736667
H        9.80965855       9.58120727     -14.10819964
C       -0.88245534      -0.88245534      -0.88245534
C       -1.91528955      -0.31046728      -1.62346877
C       -2.72175836      -1.12193884      -2.42500201
C       -2.49314244      -2.49870262      -2.48248486
C       -1.45554038      -3.06525203      -1.73855389
C       -0.64791951      -2.25542113      -0.93673378
C       -3.33427496      -3.32830115      -3.28853686
C       -4.06803202      -4.01747680      -3.94376074
C       -4.98102592      -4.82801622      -4.68883705
C       -6.18706650      -4.28690645      -5.13150804
C       -7.10480590      -5.08747618      -5.81772698
C       -6.83647840      -6.44285215      -6.07187789
C       -5.60893636      -6.96608728      -5.63440374
C       -4.68773698      -6.16599484      -4.94918457
C       -7.83210860      -7.29140932      -6.74480700
C       -8.37285713      -6.93038126      -7.98972296
C       -9.36084781      -7.71067822      -8.60049649
C       -9.82419139      -8.86714240      -7.97383304
C       -9.28513134      -9.25186634      -6.74664671
C       -8.29697024      -8.47075917      -6.13943871
C      -10.87053016      -9.64051211      -8.56693656
C      -11.77454813     -10.28039071      -9.03244782
C      -12.87261154     -11.03281501      -9.55503755
C      -13.65780992     -10.50448265     -10.58318642
C      -14.74263844     -11.23179194     -11.08006182
C      -15.03713488     -12.48540674     -10.54517037
C      -14.25691732     -13.01927160      -9.52031178
C      -13.17247816     -12.29071918      -9.02488925
Br     -16.50819689     -13.46745994     -11.21217492
H       -2.10368235       0.75844109      -1.58383994
H       -3.52953033      -0.67438673      -2.99882203
H       -1.27245344      -4.13617345      -1.77439358
H        0.15506828      -2.70326177      -0.35884224
H       -6.43009286      -3.24663945      -4.93264432
H       -8.05060283      -4.64932858      -6.13086285
H       -5.36101387      -8.00881107      -5.82353244
H       -3.74969958      -6.59962795      -4.61384659
H       -8.02717563      -6.02980525      -8.49362737
H       -9.76990957      -7.40062790      -9.55874351
H       -9.63983939     -10.14891917      -6.24521619
H       -7.90992183      -8.77634937      -5.16917178
H      -13.43349579      -9.52501684     -10.99916507
H      -15.34952084     -10.81195503     -11.87786215
H      -14.48411573     -13.99521069      -9.09973169
H      -12.56832670     -12.70807780      -8.22266096
C       -0.88245534       0.88245534       0.88245534
C       -0.29935545       1.84554701       1.70432315
C       -1.10995029       2.64651321       2.51223571
C       -2.49692183       2.48196546       2.49544264
C       -3.07488593       1.51600682       1.66845355
C       -2.26600680       0.71435963       0.85970798
C       -3.32129800       3.29032029       3.33949468
C       -3.99918459       3.95322246       4.07686251
C       -4.78573883       4.71567540       4.99646495
C       -4.16304650       5.40966963       6.03276486
C       -4.93002987       6.11660701       6.96337219
C       -6.33207554       6.14119811       6.87793479
C       -6.94097814       5.45134089       5.81710835
C       -6.17508302       4.74477822       4.88305514
C       -7.13347089       6.84082096       7.89403307
C       -6.90155389       8.19192454       8.19948291
C       -7.62748821       8.83871255       9.20582177
C       -8.59915494       8.14219011       9.92382177
C       -8.85679728       6.80551277       9.62133434
C       -8.13064894       6.16229629       8.61422289
C       -9.30770850       8.78171554      10.98855479
C       -9.88487810       9.29214566      11.91036290
C      -10.55498483       9.87354958      13.03192969
C      -10.09267669      11.07314359      13.57965870
C      -10.73597727      11.63069830      14.68781664
C      -11.83972888      10.98459070      15.24339241
C      -12.30729412       9.78824900      14.70095758
C      -11.66295121       9.23234393      13.59279145
Br     -12.70689741      11.73458848      16.74634586
H        0.77816405       1.97989283       1.72735242
H       -0.65282009       3.39416906       3.15574994
H       -4.15307100       1.37850956       1.65143990
H       -2.72214115      -0.03657340       0.22146797
H       -3.08138052       5.39285872       6.13513740
H       -4.42289635       6.62941948       7.77847843
H       -8.02418891       5.45753161       5.71163687
H       -6.67329365       4.21205631       4.07782417
H       -6.14532885       8.75225005       7.65302934
H       -7.41847131       9.88190228       9.42890740
H       -9.60874641       6.24948931      10.17573904
H       -8.33046676       5.11137618       8.41360004
H       -9.22922134      11.57695959      13.15149677
H      -10.36790651      12.56248669      15.10894483
H      -13.16619300       9.28085416      15.13201097
H      -12.02753913       8.29698153      13.17454479
C        0.88245534      -0.88245534       0.88245534
C        2.25256242      -0.63759778       0.95906541
C        3.05539935      -1.44974725       1.76355261
C        2.48682258      -2.50095824       2.48654910
C        1.11295932      -2.73994107       2.40644591
C        0.30854117      -1.92875918       1.60277406
C        3.31581811      -3.34248747       3.29280739
C        4.02785349      -4.06120527       3.94021081
C        4.89647397      -4.93598801       4.66541720
C        6.27295155      -4.88046033       4.45206911
C        7.12251280      -5.76596853       5.12152773
C        6.61325643      -6.72437053       6.01358148
C        5.22601045      -6.75372161       6.22969532
C        4.37381451      -5.86680077       5.56230110
C        7.50914029      -7.68886481       6.67031982
C        8.62266647      -7.25951368       7.41078120
C        9.50445033      -8.18073679       7.98683540
C        9.28528240      -9.54909980       7.83078463
C        8.17413455      -9.99416408       7.11534576
C        7.29401539      -9.07114233       6.54201040
C       10.21081331     -10.49533271       8.37183281
C       10.99796112     -11.30246323       8.78696232
C       11.94235857     -12.27422874       9.24387679
C       13.21631162     -11.87371525       9.65545211
C       14.14541537     -12.82578451      10.08329232
C       13.79519915     -14.17543096      10.09708188
C       12.52532037     -14.58188462       9.68929571
C       11.59754963     -13.62850991       9.26202706
Br      15.05332300     -15.46486788      10.66964087
H        2.70545982       0.17519556       0.39881694
H        4.12448365      -1.25973398       1.81852147
H        0.66230899      -3.55788630       2.96282517
H       -0.75836274      -2.12231200       1.54308647
H        6.69361569      -4.16234958       3.75341136
H        8.19096132      -5.72058565       4.91924728
H        4.79617839      -7.47458404       6.92259494
H        3.30346329      -5.91822490       5.74148593
H        8.81321221      -6.19599028       7.54140577
H       10.36481735      -7.81978859       8.54467505
H        7.99336750     -11.05796283       6.98264442
H        6.44832606      -9.44151324       5.96560367
H       13.49399104     -10.82233345       9.64135322
H       15.13478067     -12.50556194      10.39899542
H       12.24908255     -15.63288210       9.69709348
H       10.60926781     -13.94912016       8.94067748
