189
Properties=species:S:1:pos:R:3 pbc="F F F"
C        0.00000000       0.00000000       0.00000000
C        0.88245534       0.88245534      -0.88245534
C        0.63776552       2.25260409      -0.95885600
C        1.44437896       3.05406610      -1.77025415
C        2.48990736       2.48407803      -2.50034454
C        2.73059028       1.11063700      -2.41811902
C        1.92528257       0.30767774      -1.60711411
C        3.30020245       3.30531636      -3.34559416
C        3.95223043       4.00078892      -4.07625021
C        4.68564760       4.83430040      -4.97793118
C        4.20825139       6.10600436      -5.29122524
C        4.89469712       6.90612723      -6.20918470
C        6.06811267       6.45027079      -6.83282498
C        6.54399085       5.17392254      -6.49151399
C        5.85967748       4.37204540      -5.57119351
C        6.75234828       7.27655069      -7.83942595
C        7.14523325       8.59428422      -7.55344388
C        7.74501598       9.39623641      -8.53077013
C        7.96170280       8.89104267      -9.81242135
C        7.59593004       7.57851849     -10.10919586
C        6.99799687       6.77913707      -9.13003418
C        8.52575306       9.72165619     -10.83056958
C        8.96312756      10.41697283     -11.70728628
C        9.44947129      11.24081282     -12.77017999
C        9.50536636      12.62811773     -12.61199489
C        9.96224276      13.43423731     -13.65801214
C       10.36118783      12.84790860     -14.85861556
C       10.30953692      11.46425676     -15.02270703
C        9.85264351      10.65979017     -13.97565290
H       -0.17432256       2.70567664      -0.39772712
H        1.24911421       4.12184617      -1.83177872
H        3.53978459       0.65781332      -2.98542254
H        2.11647508      -0.75981238      -1.55037302
H        3.29278938       6.47765511      -4.83893214
H        4.48864435       7.88500118      -6.45714873
H        7.45635511       4.79165113      -6.94535115
H        6.24551251       3.38474717      -5.33291445
H        6.98188771       9.00839463      -6.56032591
H        8.02805984      10.41654278      -8.28467836
H        7.75550791       7.17318267     -11.10528417
H        6.69670754       5.76663682      -9.39209861
H        9.19046612      13.08870683     -11.67850475
H        9.99973344      14.51244287     -13.52716171
H       10.61806846      11.00362298     -15.95736667
H        9.80965855       9.58120727     -14.10819964
C       10.82758127      13.67819410     -15.93875590
C       11.21818577      14.37355819     -16.84337344
Br      11.84976022      15.49790313     -18.30606349
C       -0.88245534      -0.88245534      -0.88245534
C       -1.92757362      -0.31334564      -1.60830634
C       -2.73394882      -1.12486303      -2.40988737
C       -2.49298945      -2.49880204      -2.48253843
C       -1.44312712      -3.06245581      -1.75376338
C       -0.63558186      -2.25257072      -0.95192184
C       -3.33389810      -3.32873049      -3.28848438
C       -4.06732987      -4.01864638      -3.94329331
C       -4.97969513      -4.83076919      -4.68741486
C       -6.19489134      -4.29697140      -5.11361826
C       -7.11153811      -5.09972213      -5.79874882
C       -6.83293250      -6.45005554      -6.06822039
C       -5.59645351      -6.96572808      -5.64724580
C       -4.67635205      -6.16341248      -4.96315186
C       -7.82688748      -7.30165123      -6.73978621
C       -8.38275493      -6.93410131      -7.97610511
C       -9.36912278      -7.71795328      -8.58494646
C       -9.81565202      -8.88457525      -7.96493955
C       -9.26141854      -9.27566870      -6.74655715
C       -8.27492163      -8.49097155      -6.14127494
C      -10.86026050      -9.66221847      -8.55549986
C      -11.76260479     -10.30623170      -9.01855018
C      -12.85846233     -11.06408199      -9.53791978
C      -13.65827497     -10.53358842     -10.55361561
C      -14.74089090     -11.26644175     -11.04715956
C      -15.01854570     -12.52774732     -10.52141897
C      -14.22369271     -13.06378919      -9.50901880
C      -13.14149151     -12.32968290      -9.01691218
H       -2.12559614       0.75331336      -1.55679843
H       -3.55127584      -0.67961572      -2.97184754
H       -1.25035526      -4.13121342      -1.80145179
H        0.17700264      -2.69818999      -0.38584838
H       -6.44576702      -3.26096118      -4.90264843
H       -8.06432251      -4.66762881      -6.09884294
H       -5.34056697      -8.00423979      -5.84855062
H       -3.73115869      -6.59127329      -4.64074214
H       -8.05031644      -6.02560930      -8.47468251
H       -9.79012411      -7.40281792      -9.53633895
H       -9.60293922     -10.18070008      -6.25033545
H       -7.87585975      -8.80196822      -5.17761501
H      -13.44710056      -9.54818659     -10.96239055
H      -15.35920612     -10.84490602     -11.83522589
H      -14.43774067     -14.04573504      -9.09558241
H      -12.52588832     -12.74880792      -8.22436921
C      -16.13685486     -13.28162335     -11.02605306
C      -17.07343877     -13.91299454     -11.44868410
Br     -18.58781575     -14.93386834     -12.13204275
C       -0.88245534       0.88245534       0.88245534
C       -0.30011143       1.85266684       1.69644734
C       -1.11067081       2.65361961       2.50440879
C       -2.49685311       2.48195831       2.49551851
C       -3.07407272       1.50887985       1.67639373
C       -2.26522976       0.70723316       0.86761149
C       -3.32104788       3.29041382       3.33965128
C       -3.99855652       3.95361950       4.07709354
C       -4.78431336       4.71675108       4.99681474
C       -4.15991949       5.41916559       6.02639592
C       -4.92576725       6.12693835       6.95730346
C       -6.32833520       6.14398476       6.87888848
C       -6.93908513       5.44565209       5.82469016
C       -6.17434497       4.73823094       4.89034047
C       -7.12812332       6.84470438       7.89549722
C       -6.90154891       8.19850551       8.19290693
C       -7.62565819       8.84672451       9.19963983
C       -8.59010990       8.14895248       9.92610445
C       -8.84246748       6.80946189       9.63171502
C       -8.11816631       6.16481147       8.62419035
C       -9.29650577       8.79029480      10.99117826
C       -9.87158789       9.30248293      11.91331584
C      -10.53895359       9.88618981      13.03532070
C      -10.07999348      11.09088808      13.57459743
C      -10.72050016      11.65081393      14.68317811
C      -11.81811378      11.00195802      15.24764020
C      -12.28232058       9.80051231      14.71366781
C      -11.64078004       9.24224128      13.60506527
H        0.77681235       1.99258979       1.71330376
H       -0.65409976       3.40685327       3.14178607
H       -4.15161550       1.36583283       1.66557213
H       -2.72076155      -0.04924566       0.23551983
H       -3.07767674       5.40836107       6.12333882
H       -4.41712740       6.64646267       7.76720420
H       -8.02283422       5.44581305       5.72471010
H       -6.67391063       4.19889328       4.09037021
H       -6.15096949       8.75986601       7.63977276
H       -7.42083174       9.89208390       9.41636534
H       -9.58875271       6.25246552      10.19275652
H       -8.31364062       5.11188301       8.42991934
H       -9.22129877      11.59688702      13.13949191
H      -10.35505215      12.58659053      15.09769535
H      -13.13642603       9.29097244      15.15165964
H      -12.00271248       8.30292312      13.19342986
C      -12.47578784      11.57575563      16.39298780
C      -13.02658987      12.05631112      17.35221642
Br     -13.91719016      12.83332871      18.90320796
C        0.88245534      -0.88245534       0.88245534
C        2.25503788      -0.64799364       0.94619409
C        3.05781394      -1.46012939       1.75075588
C        2.48670790      -2.50095952       2.48666250
C        1.11038816      -2.72954452       2.41941362
C        0.30602982      -1.91835713       1.61568747
C        3.31542132      -3.34266888       3.29302277
C        4.02688510      -4.06190054       3.94048393
C        4.89430620      -4.93782408       4.66574890
C        6.26942647      -4.89503857       4.44101595
C        7.11725705      -5.78197761       5.11077440
C        6.60756217      -6.72913525       6.01451102
C        5.22190467      -6.74563744       6.24188527
C        4.37146737      -5.85724830       5.57420071
C        7.50098185      -7.69552811       6.67181496
C        8.62379280      -7.26924406       7.39992449
C        9.50281053      -8.19289745       7.97631455
C        9.27151636      -9.56065687       7.83299359
C        8.15115927     -10.00247304       7.13001209
C        7.27384226      -9.07701284       6.55631302
C       10.19379854     -10.50994792       8.37423237
C       10.97780332     -11.32003743       8.78954591
C       11.91807282     -12.29568026       9.24671102
C       13.19843288     -11.90213588       9.64491023
C       14.12333318     -12.85819239      10.07296664
C       13.76251034     -14.20483382      10.10036783
C       12.48620741     -14.60432053       9.70597276
C       11.56265501     -13.64696478       9.27846679
H        2.70988019       0.15665697       0.37585798
H        4.12878291      -1.27826613       1.79569005
H        0.65772074      -3.53939551       2.98590421
H       -0.76282493      -2.10381474       1.56604591
H        6.69017396      -4.18590732       3.73329534
H        8.18437597      -5.74677744       4.89964084
H        4.79192177      -7.45749248       6.94394313
H        3.30221254      -5.89865785       5.76230373
H        8.82383694      -6.20627752       7.52049380
H       10.37046932      -7.83443451       8.52437715
H        7.96087434     -11.06580987       7.00729054
H        6.42063630      -9.44516336       5.98964331
H       13.48434767     -10.85316068       9.62016934
H       15.11771574     -12.54341396      10.37820833
H       12.20168664     -15.65297312       9.72439836
H       10.56930749     -13.96218449       8.96757348
C       14.71653481     -15.19124466      10.53675180
C       15.51553030     -16.01736374      10.90222336
Br      16.80743844     -17.35312843      11.49315998
