197
Properties=species:S:1:pos:R:3 pbc="F F F"
C        0.00000000       0.00000000       0.00000000
C        0.88240266       0.88240266      -0.88240266
C        0.60151643       2.24409233      -1.00195776
C        1.39916704       3.04383312      -1.82156405
C        2.47026189       2.47717418      -2.51569893
C        2.75213724       1.11550976      -2.38624100
C        1.95614851       0.31366896      -1.56724405
C        3.25071733       3.28291622      -3.39660607
C        3.85871558       3.94554737      -4.19075005
C        4.51460133       4.71243335      -5.19820661
C        4.13403782       6.03787324      -5.41714822
C        4.72047672       6.76599628      -6.45192910
C        5.68587360       6.16630933      -7.26317874
C        6.07828954       4.84648559      -7.03299769
C        5.49219896       4.11846901      -5.99850445
C        6.24580579       6.89246541      -8.35416936
C        6.68400307       7.48888882      -9.29762119
C        7.20115036       8.22878050     -10.52436015
C        7.57040207       8.79319105     -11.51530972
C        7.96934992       9.44370557     -12.71927832
C        7.47163346      10.71318095     -13.02047912
C        7.82112749      11.32719989     -14.22290652
C        8.66603472      10.66922608     -15.11889413
C        9.17718354       9.40729431     -14.80991478
C        8.82757082       8.79281901     -13.60774611
C        8.95960138      11.26638960     -16.37981975
C        9.13753860      11.74035406     -17.46763405
C        9.27456950      12.26718015     -18.78598961
C        8.64619834      13.46701263     -19.12451677
C        8.73388772      13.95600486     -20.42898589
C        9.45145837      13.24060602     -21.38696489
C       10.08758179      12.04591961     -21.05144798
C        9.99854873      11.55900186     -19.74656900
Br       9.55353676      13.88987173     -23.15914000
H       -0.23558573       2.69049504      -0.47340497
H        1.17726551       4.10319209      -1.92850169
H        3.58326221       0.67370082      -2.93230093
H        2.17595218      -0.74729565      -1.47918943
H        3.36888750       6.50238305      -4.79999291
H        4.40745374       7.79170329      -6.63037656
H        6.82456844       4.37062674      -7.66354860
H        5.78935972       3.08545229      -5.83818743
H        6.79903148      11.22013842     -12.33278381
H        7.41836319      12.30741986     -14.46693038
H        9.83069302       8.88998019     -15.50792009
H        9.21285451       7.80211250     -13.37886320
H        8.07765699      14.01685901     -18.37880546
H        8.23439565      14.88547422     -20.68669096
H       10.64446975      11.48514689     -21.79571697
H       10.48380830      10.62227041     -19.48588743
C       -0.88240266      -0.88240266      -0.88240266
C       -2.19845304      -0.50151777      -1.14759571
C       -3.00669899      -1.31780374      -1.94006147
C       -2.49445186      -2.50811840      -2.46056475
C       -1.17419828      -2.88072760      -2.19896212
C       -0.36390276      -2.06621404      -1.40694472
C       -3.33713928      -3.36952359      -3.22357674
C       -4.06726062      -4.12539725      -3.80235513
C       -4.96063640      -5.05843037      -4.40617452
C       -6.31198480      -4.73463411      -4.54244036
C       -7.20139806      -5.67447040      -5.06253363
C       -6.73599698      -6.93409635      -5.44526836
C       -5.38182468      -7.25125235      -5.32469579
C       -4.49252390      -6.31177761      -4.80487091
C       -7.65340059      -7.91306435      -5.92597561
C       -8.43176903      -8.74991506      -6.28882899
C       -9.42712266      -9.82679611      -6.70037224
C      -10.21535168     -10.68644868      -6.97710249
C      -11.15582563     -11.72071654      -7.25579164
C      -12.52317660     -11.43745186      -7.24466507
C      -13.44466460     -12.46063065      -7.46593864
C      -12.99513886     -13.76226118      -7.69675489
C      -11.62759903     -14.04201586      -7.72477774
C      -10.70584761     -13.01914115      -7.50314718
C      -13.94057155     -14.81890829      -7.84633088
C      -14.74080037     -15.71171197      -7.89301437
C      -15.69054437     -16.77538357      -7.86181132
C      -17.04769146     -16.49169898      -7.69833730
C      -17.97231857     -17.53389275      -7.61266715
C      -17.53221684     -18.85465732      -7.69215513
C      -16.17864849     -19.14266003      -7.86364086
C      -15.25604102     -18.09900243      -7.94907614
Br     -18.77986854     -20.26783840      -7.55484154
H       -2.60745460       0.41753276      -0.73839243
H       -4.03703917      -1.03232016      -2.13959996
H       -0.77784484      -3.81144856      -2.59997056
H        0.65972717      -2.36782041      -1.19975273
H       -6.68172305      -3.76183311      -4.22770730
H       -8.25583244      -5.42439093      -5.14931021
H       -5.01268006      -8.23134910      -5.61471463
H       -3.44328263      -6.57338931      -4.69632751
H      -12.87651181     -10.42825350      -7.04718840
H      -14.51009144     -12.24456014      -7.43806185
H      -11.27455422     -15.05545010      -7.89858897
H       -9.64208458     -13.24435323      -7.50739240
H      -17.38685415     -15.46153593      -7.62493138
H      -19.02532706     -17.30508298      -7.47615079
H      -15.83254567     -20.16990375      -7.92288419
H      -14.19939266     -18.32151623      -8.07105725
C       -0.88240266       0.88240266       0.88240266
C       -0.42250948       2.13541718       1.28963986
C       -1.22383880       2.93173014       2.10899527
C       -2.47747818       2.47000591       2.51565092
C       -2.93652430       1.21871504       2.09864865
C       -2.13724217       0.42057174       1.27924761
C       -3.27235267       3.25961257       3.39827437
C       -3.90587817       3.89211983       4.19701499
C       -4.60877802       4.60188640       5.21457687
C       -4.07573891       5.78629279       5.72702757
C       -4.72211268       6.44157032       6.77471909
C       -5.89949373       5.91055109       7.30531686
C       -6.44113555       4.73548223       6.78115504
C       -5.79513616       4.08032741       5.73370885
C       -6.53066385       6.55046813       8.41130858
C       -7.03662553       7.06484053       9.36904701
C       -7.64886182       7.68948263      10.61594656
C       -8.10142357       8.15291890      11.62456038
C       -8.60842226       8.67271716      12.85119439
C       -7.98516844       9.76881167      13.45131342
C       -8.44945317      10.24439243      14.67738830
C       -9.53418654       9.62181776      15.29815063
C      -10.16791232       8.53668973      14.68979058
C       -9.70362945       8.06060443      13.46390206
C       -9.95739387      10.06186775      16.58654910
C      -10.25566229      10.38775340      17.70211103
C      -10.54808691      10.72216680      19.05748555
C       -9.81541844      11.72109723      19.70121208
C      -10.06319471      12.01190739      21.04377637
C      -11.04435487      11.30085616      21.73381825
C      -11.78431157      10.30787414      21.09276367
C      -11.53483742      10.01889688      19.75038528
Br     -11.36671695      11.67821037      23.55762117
H        0.55526148       2.49756931       0.98600644
H       -0.86530861       3.90379091       2.43985978
H       -3.91097440       0.85725040       2.42103917
H       -2.49742076      -0.55632702       0.96675223
H       -3.14893323       6.19272787       5.32960235
H       -4.29326992       7.35338045       7.18288322
H       -7.35379355       4.31253238       7.19241785
H       -6.21299675       3.15574754       5.34425516
H       -7.12888867      10.24415123      12.97891381
H       -7.95237284      11.08561878      15.15472181
H      -11.00911541       8.04623227      15.17324562
H      -10.18809852       7.20368663      13.00204506
H       -9.04305930      12.26594582      19.16431633
H       -9.48244577      12.78412524      21.53998982
H      -12.54676579       9.75051204      21.62805577
H      -12.10233502       9.23748990      19.25214121
C        0.88240266      -0.88240266       0.88240266
C        1.88664302      -0.30235431       1.65856919
C        2.70145476      -1.11261834       2.45049111
C        2.50734393      -2.49551203       2.46027905
C        1.49562351      -3.07026803       1.68799645
C        0.67943236      -2.26226898       0.89536018
C        3.37584190      -3.32849015       3.22590757
C        4.15170121      -4.03125311       3.81205867
C        5.12935938      -4.86354163       4.43234027
C        6.21646410      -4.28350690       5.08908827
C        7.21332365      -5.09486099       5.63021745
C        7.11884939      -6.48308844       5.51342386
C        6.02310132      -7.06304132       4.87163018
C        5.02639961      -6.25207856       4.33069425
C        8.16395289      -7.30995913       6.01852853
C        9.06379510      -8.00209847       6.40461951
C       10.22960745      -8.87571399       6.84896957
C       11.16717999      -9.55727832       7.15444454
C       12.30134157     -10.36100769       7.46998454
C       13.45273054      -9.76446048       7.98810251
C       14.57997574     -10.54349193       8.24776623
C       14.55127369     -11.91505920       7.98782204
C       13.39439359     -12.51412952       7.48586952
C       12.26709833     -11.73531945       7.22571816
C       15.72910285     -12.69460571       8.18210216
C       16.74510247     -13.32619153       8.27423271
C       17.97352242     -14.05041143       8.30380541
C       19.15283248     -13.40486432       8.68003094
C       20.36455087     -14.09742907       8.65689853
C       20.38793434     -15.43331306       8.25778188
C       19.21136452     -16.08459889       7.88898598
C       18.00104952     -15.39012881       7.91294126
Br      22.03060898     -16.36681091       8.20512859
H        2.05058325       0.77115079       1.64888181
H        3.49392447      -0.66734765       3.04768717
H        1.34911234      -4.14853827       1.69161335
H       -0.09964797      -2.71799168       0.28950226
H        6.30349939      -3.20243465       5.16532942
H        8.06722849      -4.63805063       6.12425447
H        5.94511193      -8.14231140       4.77132045
H        4.18642330      -6.71080173       3.81577441
H       13.48389143      -8.69364733       8.17441495
H       15.48339419     -10.07644969       8.63286955
H       13.37071900     -13.58078358       7.27709072
H       11.37405316     -12.20233940       6.81743765
H       19.13365579     -12.36008721       8.97957846
H       21.27902892     -13.58539023       8.94214167
H       19.22672058     -17.12366964       7.57494339
H       17.08471104     -15.89245599       7.61479912
