61
Properties=species:S:1:pos:R:3 pbc="F F F"
C        0.00000000       0.00000000       0.00000000
C        0.88178401       0.88178401      -0.88178401
C        0.57437824       2.22838504      -1.03448899
C        1.39792879       2.99931504      -1.84337040
C        1.11028146       4.45739971      -2.04145693
N        2.47644807       2.48740034      -2.47951098
C        2.74589957       1.17412672      -2.30871288
C        1.98213013       0.33182374      -1.52308392
H       -0.28343193       2.66926225      -0.53793328
H        1.85265468       4.91456766      -2.70345664
H        1.14019796       4.98234904      -1.08167912
H        0.12263458       4.58970002      -2.49389355
H        2.23431516      -0.71625648      -1.41357773
C        3.89513011       0.63454414      -2.98821255
C        4.85761069       0.18264372      -3.55729353
Br       6.41386038      -0.54804102      -4.47744933
C       -0.88178401      -0.88178401      -0.88178401
C       -0.77329624      -2.26473902      -0.79921701
C       -1.59052266      -3.03450752      -1.61558405
C       -1.51281003      -4.53097915      -1.56534892
N       -2.47776303      -2.48764363      -2.47795273
C       -2.55686481      -1.13958782      -2.53228654
C       -1.78365237      -0.29555666      -1.75782876
H       -0.07167369      -2.73415834      -0.11793155
H       -2.22102416      -4.98171478      -2.26794005
H       -1.75572459      -4.88853238      -0.55996916
H       -0.50623509      -4.86635122      -1.83364184
H       -1.87945972       0.78110002      -1.83327671
C       -3.50298291      -0.56289609      -3.45200780
C       -4.29535682      -0.07991677      -4.22227435
Br      -5.57655841       0.70101994      -5.46773022
C       -0.88178401       0.88178401       0.88178401
C       -2.19878391       0.51195762       1.12651075
C       -2.97064280       1.33746696       1.93250447
C       -4.39752881       0.98403026       2.22757903
N       -2.48721100       2.47604881       2.48009958
C       -1.20227600       2.80525864       2.22120453
C       -0.36137312       2.04444161       1.43122306
H       -2.61641334      -0.39487567       0.70222592
H       -4.85937501       1.73626861       2.87503536
H       -4.44974335       0.01707972       2.73740306
H       -4.97412816       0.93328732       1.29881267
H        0.66343020       2.34571119       1.24935543
C       -0.69294310       4.01827740       2.80666630
C       -0.26637680       5.03418062       3.29699053
Br       0.42334483       6.67681019       4.08980334
C        0.88178401      -0.88178401       0.88178401
C        2.24130537      -0.61249472       0.98345218
C        3.01181458      -1.43480392       1.79399573
C        4.48356951      -1.18748545       1.93808314
N        2.48749096      -2.47671539       2.47915304
C        1.16186383      -2.70972262       2.35715272
C        0.31894330      -1.94413131       1.57396318
H        2.69232302       0.21539992       0.44684049
H        4.93818638      -1.92233269       2.61015991
H        4.66043278      -0.19050703       2.35328631
H        4.97692563      -1.26499579       0.96430673
H       -0.73928902      -2.16636645       1.50455899
C        0.60910848      -3.82009193       3.08868639
C        0.14617587      -4.75002623       3.70134584
Br      -0.60234700      -6.25365135       4.69196434
