53
Properties=species:S:1:pos:R:3 pbc="F F F"
C        0.00000000       0.00000000       0.00000000
C        0.88178401       0.88178401      -0.88178401
C        0.57437824       2.22838504      -1.03448899
C        1.39792879       2.99931504      -1.84337040
C        1.11028146       4.45739971      -2.04145693
N        2.47644807       2.48740034      -2.47951098
C        2.74589957       1.17412672      -2.30871288
Br       4.25945415       0.46348803      -3.20362456
C        1.98213013       0.33182374      -1.52308392
H       -0.28343193       2.66926225      -0.53793328
H        1.85265468       4.91456766      -2.70345664
H        1.14019796       4.98234904      -1.08167912
H        0.12263458       4.58970002      -2.49389355
H        2.23431516      -0.71625648      -1.41357773
C       -0.88178401      -0.88178401      -0.88178401
C       -0.65297450      -2.25152859      -0.93274918
C       -1.47402648      -3.02172029      -1.74486746
C       -1.26932761      -4.50423886      -1.83557163
N       -2.47696753      -2.48755463      -2.47883723
C       -2.67120804      -1.15213692      -2.40539421
Br      -4.07906687      -0.41038167      -3.43711819
C       -1.90370758      -0.30873423      -1.62459598
H        0.14312289      -2.71057669      -0.35630979
H       -1.99821080      -4.95734951      -2.51511867
H       -1.39089138      -4.96359151      -0.84974323
H       -0.26670665      -4.72480632      -2.21471518
H       -2.09410473       0.75753882      -1.59507051
C       -0.88178401       0.88178401       0.88178401
C       -2.15186421       0.44583657       1.23955149
C       -2.92521345       1.27345103       2.04194975
C       -4.30258586       0.85022116       2.45633108
N       -2.48690154       2.47561017       2.48084767
C       -1.24686659       2.86808990       2.11378268
Br      -0.63916775       4.55456549       2.73283350
C       -0.40819051       2.11041299       1.31843429
H       -2.53265237      -0.51291274       0.90402396
H       -4.77244426       1.61391211       3.08432262
H       -4.25548016      -0.08081516       3.02956112
H       -4.93277870       0.69894701       1.57450245
H        0.57972661       2.46366156       1.04770147
C        0.88178401      -0.88178401       0.88178401
C        2.21271160      -0.53830054       1.08624013
C        2.98412826      -1.36297131       1.89351466
C        4.42571140      -1.03734014       2.14608657
N        2.48730278      -2.47622350       2.47983311
C        1.18903943      -2.78022621       2.25947353
Br       0.49950879      -4.34236806       3.08468989
C        0.34747562      -2.01815819       1.47140399
H        2.64127712       0.34784912       0.63033559
H        4.88518451      -1.78501945       2.80047502
H        4.51313572      -0.06014540       2.63094500
H        4.98066880      -1.02258097       1.20297837
H       -0.68827714      -2.29871905       1.32119451
