82
Properties=species:S:1:pos:R:3 pbc="F F F"
C        1.79168804       1.79168804      -1.79168804
C        1.48428226       3.13828907      -1.94439302
C        2.30783281       3.90921906      -2.75327443
C        2.02018548       5.36730373      -2.95136096
N        3.38635210       3.39730437      -3.38941500
C        3.65580360       2.08403074      -3.21861690
C        2.89203415       1.24172777      -2.43298794
H        0.62647209       3.57916627      -1.44783730
H        2.76255871       5.82447169      -3.61336066
H        2.05010199       5.89225307      -1.99158314
H        1.03253860       5.49960404      -3.40379757
H        3.14421919       0.19364755      -2.32348176
C        4.80503414       1.54444816      -3.89811658
C        5.76751472       1.09254775      -4.46719755
Br       7.32376441       0.36186300      -5.38735336
C       -1.79168804      -1.79168804      -1.79168804
C       -1.59780824      -3.16772113      -1.80143498
C       -2.41774970      -3.93771190      -2.61486470
C       -2.24991507      -5.42687069      -2.66206442
N       -3.38710246      -3.39750075      -3.38846825
C       -3.54791784      -2.05606642      -3.35446698
C       -2.77875920      -1.21236479      -2.57562588
H       -0.82913716      -3.63170644      -1.19263206
H       -2.97279990      -5.87886827      -3.34872289
H       -2.40879980      -5.85682292      -1.66831547
H       -1.24405164      -5.68301020      -3.00887839
H       -2.94169666      -0.14114859      -2.57850325
C       -4.58122816      -1.48643816      -4.17993256
C       -5.44662555      -1.00937448      -4.87125999
Br      -6.84589993      -0.23800287      -5.98907796
C       -1.79168804       1.79168804       1.79168804
C       -3.07513716       1.37193551       2.11989168
C       -3.84806169       2.19903433       2.92323029
C       -5.23954232       1.79289893       3.30640892
N       -3.39689377       3.38562166       3.39055603
C       -2.14406543       3.76260483       3.05178098
C       -1.30475483       3.00415880       2.25783623
H       -3.46642254       0.42590189       1.76115123
H       -5.70711571       2.55378335       3.93949200
H       -5.21848021       0.85146540       3.86399259
H       -5.85672285       1.66785014       2.41136724
H       -0.30632769       3.34467627       2.01034454
C       -1.66899283       5.02659812       3.55200793
C       -1.27111952       6.08519250       3.97094800
Br      -0.62779204       7.79685007       4.64833866
C        1.79168804      -1.79168804       1.79168804
C        3.13224879      -1.46936752       1.96534804
C        3.90335965      -2.29336464       2.77360202
C        5.35510789      -1.99007130       2.99367099
N        3.39727025      -3.38626785       3.38953337
C        2.08978821      -3.67002003       3.19864300
C        1.24776728      -2.90694702       2.41203556
H        3.56837834      -0.59983434       1.48526298
H        5.81294194      -2.73408927       3.65335984
H        5.46939501      -1.00597369       3.45856950
H        5.89258422      -2.00289193       2.04046407
H        0.20444127      -3.17087122       2.28603600
C        1.55639560      -4.83453496       3.85666832
C        1.10967929      -5.80981621       4.40776452
Br       0.38737680      -7.38676351       5.29884046
C       -0.00445707       0.01189536      -1.78238275
H       -0.66409135       0.67374010      -2.43557963
H        0.65740317      -0.63156657      -2.45157240
C       -0.90989263      -0.90692880      -0.91072765
C        0.90977584       0.90977584      -0.90977584
C       -0.00465871       1.77757030       0.00794375
H       -0.66225468       2.44313916      -0.64384735
H        0.64322798       2.43503045       0.67728295
C       -1.78241447       0.00034974      -0.00472694
H       -2.45427497      -0.65498947       0.64260836
H       -2.43311707       0.67328779      -0.65473579
C       -0.91132561       0.90220522       0.91563759
C       -0.01476271      -0.02253852       1.78660255
H       -0.67934791      -0.69751639       2.42135241
H        0.63392994       0.61504881       2.47327442
C        0.01484550      -1.77751727      -0.01636693
H        0.67870853      -2.42144646      -0.68295456
H       -0.62264859      -2.45592969       0.64226336
C        1.78714474       0.01002794       0.00389507
H        2.44202412       0.67113390       0.66197326
H        2.45385902      -0.65136977      -0.64189061
C        0.91606151      -0.90478549       0.90901405
