178
Properties=species:S:1:pos:R:3 pbc="F F F"
C        1.82760733       1.82760733      -1.82760733
C        2.27598186       1.08664219      -3.09481398
H        1.37779878       0.68289912      -3.58153914
C        3.22669716      -0.06267891      -2.78431025
C        4.48375324       0.15190141      -2.19345881
C        5.34932397      -0.92002903      -1.96576906
C        4.96165644      -2.20764856      -2.32021965
C        3.72438542      -2.44859109      -2.89635349
C        2.86992312      -1.37743014      -3.12358762
F        1.68377882      -1.61964510      -3.70119054
F        5.80150147      -3.22925586      -2.10766228
C        2.91000370       2.09550194      -4.08969378
C        3.28204834       1.44773314      -5.43460273
C        3.90272365       2.42384809      -6.46495436
H        3.13603086       3.18560757      -6.66571743
C        5.15758260       3.16456385      -6.00624678
C        5.36593348       4.48083020      -6.45472587
C        6.51889891       5.18421670      -6.09546975
C        7.46791943       4.57833605      -5.28155230
C        7.29516639       3.28013584      -4.83365501
C        6.15391471       2.57743953      -5.20982094
F        6.03663598       1.31194214      -4.79665742
F        8.56930572       5.25657244      -4.93527796
C        4.24051886       1.69362197      -7.77513086
Br       2.62957357       1.24487274      -8.78063697
H        2.66098703       2.15857981      -1.20164885
H        1.20491293       2.69348193      -2.07245501
H        4.81004817       1.15369451      -1.92423189
H        6.32725797      -0.75795025      -1.52351606
H        3.43144112      -3.45447170      -3.17235839
H        2.19188580       2.90372001      -4.28146451
H        3.78711780       2.56430135      -3.63141109
H        2.36389213       1.01826043      -5.85455830
H        3.95659727       0.59936910      -5.27918007
H        4.63679131       4.96659419      -7.10181292
H        6.68501050       6.19725682      -6.45145450
H        8.04444789       2.81076660      -4.20611863
H        4.78516559       0.75971394      -7.60620597
H        4.82458864       2.31862042      -8.45902755
C       -1.82760733      -1.82760733      -1.82760733
C       -1.57377745      -3.31844664      -1.56521393
H       -1.66930688      -3.48870188      -0.48422829
C       -0.18348643      -3.75348861      -2.01135346
C        0.21854129      -3.69100943      -3.35664532
C        1.48417815      -4.14205029      -3.73719185
C        2.35335410      -4.64984798      -2.77773364
C        1.98574486      -4.71487189      -1.44302079
C        0.72404259      -4.26816620      -1.07195699
F        0.37111658      -4.35561784       0.21917700
F        3.56189992      -5.08964639      -3.15216143
C       -2.68086220      -4.16266901      -2.25166822
C       -2.56092188      -5.66426154      -1.93920078
C       -3.65763196      -6.54300927      -2.59088486
H       -4.61491450      -6.19473394      -2.17770743
C       -3.76794313      -6.44880847      -4.11164162
C       -5.03836287      -6.55904804      -4.70407864
C       -5.18487979      -6.52031791      -6.09338766
C       -4.06333339      -6.36581870      -6.89865570
C       -2.79900781      -6.26555703      -6.34439239
C       -2.65672264      -6.32357979      -4.96087275
F       -1.41961334      -6.26705130      -4.45857090
F       -4.20753723      -6.32438046      -8.22923843
C       -3.46128278      -8.02329598      -2.22469294
Br      -3.92624444      -8.36768320      -0.36115564
H       -1.63006441      -1.52996916      -2.86118212
H       -2.85353075      -1.54741588      -1.56990324
H       -0.45351350      -3.31166756      -4.12279349
H        1.79408525      -4.10993903      -4.77697001
H        2.66784603      -5.11481248      -0.70236136
H       -3.66146152      -3.81344534      -1.90216347
H       -2.65937152      -3.99056705      -3.33289167
H       -2.61243253      -5.77540506      -0.84887327
H       -1.57224009      -6.03853182      -2.22437453
H       -5.92653901      -6.69106398      -4.08759543
H       -6.16544021      -6.61692325      -6.55135836
H       -1.92747206      -6.15420608      -6.97965498
H       -2.42865742      -8.35668858      -2.36573950
H       -4.12158470      -8.68291484      -2.79773707
C       -1.82760733       1.82760733       1.82760733
C       -2.17950386       3.14846220       1.12947196
H       -2.59528012       2.90453805       0.14241888
C       -0.96117991       4.04408944       0.94305915
C       -0.23939701       4.55360489       2.03611156
C        0.84425821       5.40981520       1.82950700
C        1.21446709       5.75455761       0.53413700
C        0.52557447       5.25961557      -0.56189329
C       -0.55364980       4.41159059      -0.34915978
F       -1.22611935       3.95567983      -1.41647492
F        2.24885511       6.58419924       0.34456376
C       -3.30090178       3.87232830       1.92196935
C       -3.79012028       5.15208073       1.22218320
C       -4.92278150       5.89773394       1.97101066
H       -5.77131971       5.20032049       2.01571566
C       -4.60940965       6.31106762       3.40791595
C       -5.64810387       6.29782025       4.35556542
C       -5.41955392       6.70677913       5.67225231
C       -4.15042670       7.12630026       6.05108083
C       -3.11114311       7.16025193       5.13756220
C       -3.34874549       6.76968274       3.82274696
F       -2.33620045       6.85434719       2.95468790
F       -3.93354306       7.51307221       7.31454086
C       -5.34897828       7.15875325       1.20154017
Br      -6.35487738       6.70911877      -0.40891287
H       -1.28737779       1.96546750       2.76837039
H       -2.72286598       1.22837154       2.01961235
H       -0.52416730       4.30746845       3.05633882
H        1.39578590       5.81804525       2.67056444
H        0.81868100       5.53571069      -1.56770187
H       -4.15426395       3.19025095       2.03255543
H       -2.95137796       4.09613836       2.93531392
H       -4.14797915       4.86248653       0.22624518
H       -2.95421178       5.83657348       1.04436118
H       -6.65118481       5.98167533       4.07233827
H       -6.22506793       6.70721335       6.40144055
H       -2.12555966       7.49741655       5.43835690
H       -4.49525544       7.76741541       0.88841464
H       -6.03087806       7.78824991       1.78310864
C        1.82760733      -1.82760733       1.82760733
C        2.48630298      -1.01807103       2.95306403
H        1.69291071      -0.47007562       3.47925072
C        3.50677954      -0.01873385       2.42281511
C        4.66233539      -0.43011122       1.73666684
C        5.60010560       0.51048726       1.30544566
C        5.38523517       1.86226176       1.55125411
C        4.25024106       2.29602582       2.21793258
C        3.32348024       1.35490489       2.64750525
F        2.23932704       1.78437783       3.31037505
F        6.29421700       2.75748639       1.14317728
C        3.12299673      -1.98656794       3.98563476
C        3.70554906      -1.25289161       5.20594354
C        4.33627779      -2.18397432       6.27127399
H        3.52432775      -2.83161440       6.63141371
C        5.45170128      -3.10207388       5.77461806
C        5.57586857      -4.38179458       6.34382640
C        6.60536651      -5.24167534       5.95154351
C        7.51366378      -4.82986556       4.98427844
C        7.42294848      -3.57191505       4.41409371
C        6.40684701      -2.71232858       4.82199959
F        6.37157536      -1.48941462       4.28424557
F        8.49612928      -5.65783340       4.60719345
C        4.88935402      -1.36843300       7.45148468
Br       3.45354869      -0.64458017       8.55695441
H        2.54870135      -2.31037485       1.16213948
H        1.15251734      -2.58981709       2.22851544
H        4.85464125      -1.48391297       1.54942034
H        6.50150207       0.19699691       0.78831862
H        4.09207399       3.35083188       2.40808571
H        2.35341962      -2.68645479       4.33719591
H        3.89221247      -2.59369023       3.49692755
H        2.88754623      -0.68391732       5.66524730
H        4.44011843      -0.50481792       4.89021008
H        4.87840869      -4.71604587       7.11074386
H        6.70782843      -6.22614678       6.39974661
H        8.14085706      -3.25415970       3.66631636
H        5.50254826      -0.52265947       7.12587777
H        5.48044778      -1.98297378       8.13881505
C       -0.00445707       0.01189536      -1.78238275
H       -0.66409135       0.67374010      -2.43557963
H        0.65740317      -0.63156657      -2.45157240
C       -0.90989263      -0.90692880      -0.91072765
C        0.90977584       0.90977584      -0.90977584
C       -0.00465871       1.77757030       0.00794375
H       -0.66225468       2.44313916      -0.64384735
H        0.64322798       2.43503045       0.67728295
C       -1.78241447       0.00034974      -0.00472694
H       -2.45427497      -0.65498947       0.64260836
H       -2.43311707       0.67328779      -0.65473579
C       -0.91132561       0.90220522       0.91563759
C       -0.01476271      -0.02253852       1.78660255
H       -0.67934791      -0.69751639       2.42135241
H        0.63392994       0.61504881       2.47327442
C        0.01484550      -1.77751727      -0.01636693
H        0.67870853      -2.42144646      -0.68295456
H       -0.62264859      -2.45592969       0.64226336
C        1.78714474       0.01002794       0.00389507
H        2.44202412       0.67113390       0.66197326
H        2.45385902      -0.65136977      -0.64189061
C        0.91606151      -0.90478549       0.90901405
