165
Properties=species:S:1:pos:R:3 pbc="F F F"
C        0.00000000       0.00000000       0.00000000
C        0.91770331       0.91770331      -0.91770331
C        1.36607784       0.17673816      -2.18490995
H        0.46789476      -0.22700490      -2.67163512
C        2.31679313      -0.97258293      -1.87440622
C        3.57384922      -0.75800262      -1.28355479
C        4.43941994      -1.82993306      -1.05586504
C        4.05175241      -3.11755259      -1.41031563
C        2.81448139      -3.35849511      -1.98644946
C        1.96001910      -2.28733417      -2.21368360
F        0.77387479      -2.52954913      -2.79128652
F        4.89159745      -4.13915989      -1.19775826
C        2.00009968       1.18559792      -3.17978976
C        2.37214431       0.53782911      -4.52469870
C        2.99281963       1.51394406      -5.55505033
H        2.22612684       2.27570354      -5.75581340
C        4.24767858       2.25465982      -5.09634275
C        4.45602946       3.57092617      -5.54482184
C        5.60899488       4.27431268      -5.18556573
C        6.55801541       3.66843203      -4.37164828
C        6.38526236       2.37023182      -3.92375099
C        5.24401068       1.66753551      -4.29991692
F        5.12673195       0.40203812      -3.88675339
F        7.65940170       4.34666842      -4.02537394
C        3.33061484       0.78371795      -6.86522684
H        1.75108301       1.24867578      -0.29174483
H        0.29500891       1.78357790      -1.16255099
H        3.90014414       0.24379048      -1.01432786
H        5.41735395      -1.66785427      -0.61361204
H        2.52153710      -4.36437572      -2.26245437
H        1.28198178       1.99381598      -3.37156049
H        2.87721378       1.65439733      -2.72150706
H        1.45398810       0.10835641      -4.94465427
H        3.04669325      -0.31053493      -4.36927605
H        3.72688729       4.05669017      -6.19190889
H        5.77510648       5.28735280      -5.54155048
H        7.13454387       1.90086258      -3.29621461
H        3.87526157      -0.15019009      -6.69630195
H        3.91468462       1.40871640      -7.54912353
C        2.14178492       0.45255430      -7.60726057
C        1.14613986       0.17520475      -8.22871382
Br      -0.46373399      -0.27324603      -9.23355116
C       -0.91770331      -0.91770331      -0.91770331
C       -1.85819342      -1.79231446      -0.07721807
H       -2.39661023      -1.13296204       0.61704729
C       -1.10280673      -2.84288926       0.72707955
C       -0.35069259      -3.85489535       0.10618656
C        0.29087806      -4.82955915       0.87332916
C        0.18962268      -4.79396126       2.25982313
C       -0.53832877      -3.80229779       2.89819082
C       -1.17714358      -2.83823891       2.12901396
F       -1.89635053      -1.89580804       2.75654638
F        0.79971559      -5.73812219       2.98821079
C       -2.92586162      -2.44124382      -0.99838192
C       -3.97742094      -3.24405572      -0.21319547
C       -5.07350286      -3.89514179      -1.09316937
H       -5.59564700      -3.06770826      -1.59428852
C       -4.57437920      -4.83571050      -2.18859145
C       -5.27830198      -4.88883675      -3.40463874
C       -4.88437991      -5.76364247      -4.42085091
C       -3.78149445      -6.58667591      -4.22992535
C       -3.07563355      -6.56407655      -3.03953507
C       -3.48355393      -5.70435809      -2.02355109
F       -2.80794726      -5.73661235      -0.87096386
F       -3.40377879      -7.42038606      -5.20727920
C       -6.07872886      -4.67286143      -0.22796933
H       -0.24176152      -1.49583759      -1.55390451
H       -1.47918712      -0.21784807      -1.54410261
H       -0.27338941      -3.90764726      -0.97722582
H        0.86060569      -5.62198557       0.39826816
H       -0.61467820      -3.78369091       3.97875337
H       -3.44131031      -1.64891102      -1.55713692
H       -2.43424043      -3.07489831      -1.74397943
H       -4.44996206      -2.55455343       0.49751670
H       -3.49524866      -4.01143159       0.40124588
H       -6.15123093      -4.25783808      -3.56641734
H       -5.43532681      -5.81261681      -5.35606613
H       -2.22138103      -7.21579295      -2.89444706
H       -5.58807440      -5.32986971       0.49657068
H       -6.76762680      -5.27312927      -0.83176848
C       -6.93341665      -3.78463619       0.51645306
C       -7.64921768      -3.04074756       1.13990682
Br      -8.80660740      -1.83794254       2.14797880
C       -0.91770331       0.91770331       0.91770331
C       -1.58054079       2.04001001       0.10717515
H       -2.08605517       1.57833975      -0.75186994
C       -0.56762979       3.05621254      -0.40522590
C        0.20727797       3.83823899       0.46844036
C        1.09248920       4.79344916      -0.03560804
C        1.21186215       4.96662895      -1.41025135
C        0.46619247       4.20300693      -2.29437872
C       -0.41518725       3.25743520      -1.78625391
F       -1.14725049       2.53901863      -2.65065693
F        2.05585596       5.89174199      -1.88569021
C       -2.68250477       2.71872897       0.96425362
C       -3.47271073       3.78111100       0.18085039
C       -4.59551103       4.47220646       0.99409653
H       -5.30083021       3.67841802       1.27839555
C       -4.15411189       5.15956023       2.28500903
C       -5.03045673       5.15671528       3.38460546
C       -4.68820009       5.80769236       4.57298084
C       -3.46592019       6.46079430       4.67138122
C       -2.58759255       6.48961207       3.60204055
C       -2.94147981       5.85560097       2.41438233
F       -2.09122134       5.93766854       1.38663359
F       -3.13892504       7.07959290       5.81292612
C       -5.33102445       5.51366827       0.13486691
H       -0.27967451       1.28588860       1.72594051
H       -1.66400190       0.23760332       1.33953258
H        0.11566962       3.72757592       1.54635618
H        1.68229153       5.41042296       0.63498029
H        0.56299406       4.34648980      -3.36388000
H       -3.38570890       1.95019638       1.31145297
H       -2.23453768       3.15572533       1.86285517
H       -3.91536949       3.28164432      -0.69001502
H       -2.79650883       4.53831087      -0.22938534
H       -5.99677858       4.65827748       3.32043029
H       -5.37040975       5.81498014       5.41861986
H       -1.63934521       7.00899562       3.68328022
H       -4.64406307       6.17686820      -0.39955784
H       -6.01847229       6.12771852       0.72633374
C       -6.16916882       4.88619525      -0.85376428
C       -6.87111473       4.36068660      -1.68174290
Br      -8.00610190       3.51098355      -3.02051430
C        0.91770331      -0.91770331       0.91770331
C        1.46624786      -0.13972639       2.12175171
H        0.61505340       0.33292079       2.63039237
C        2.45477045       0.94269363       1.70653960
C        3.66782745       0.63521034       1.06678427
C        4.57189304       1.64885432       0.74231321
C        4.26631651       2.97046587       1.04866480
C        3.07352667       3.30250962       1.67141869
C        2.18055576       2.28904028       1.99485306
F        1.03890162       2.61979859       2.61650916
F        5.14303996       3.93597418       0.74313004
C        2.10049466      -1.13001321       3.13497949
C        2.57233990      -0.43728081       4.42505142
C        3.19669575      -1.39248659       5.47263168
H        2.40502954      -2.10313503       5.74947921
C        4.38864507      -2.21821273       4.99182336
C        4.55520415      -3.51995993       5.49661339
C        5.65244900      -4.29835760       5.11806668
C        6.58687012      -3.78251803       4.22870756
C        6.45496656      -2.50059179       3.72368681
C        5.37024094      -1.72265820       4.11856396
F        5.29385874      -0.47450536       3.64715936
F        7.63456122      -4.53254495       3.86433788
C        3.63662197      -0.61744177       6.72549588
H        1.70066006      -1.32123624       0.26960731
H        0.26685129      -1.73744853       1.23683798
H        3.93052797      -0.39397752       0.83375700
H        5.51672893       1.41533916       0.26172194
H        2.84464076       4.33439258       1.90936756
H        1.35454942      -1.88993802       3.40287081
H        2.92895593      -1.66508114       2.65908109
H        1.69904955       0.05879528       4.86674451
H        3.27865439       0.36670296       4.19348294
H        3.83740618      -3.93543107       6.20264909
H        5.78693772      -5.29999047       5.51708156
H        7.19305657      -2.10155359       3.03701089
H        4.21684674       0.27788436       6.48241104
H        4.22382042      -1.23746017       7.41124396
C        2.50508162      -0.18978730       7.50673086
C        1.55741658       0.16837332       8.16101516
Br       0.02512236       0.74748874       9.21893753
