110
Properties=species:S:1:pos:R:3 pbc="F F F"
C        1.82682123       1.82682123      -1.82682123
C        1.88741821       1.29702601      -3.26548858
C        0.56793940       1.55184096      -4.00983924
C        3.07833565       1.92827389      -3.98303488
C        3.18695866       3.31687722      -4.16331753
C        4.29079326       3.85645488      -4.82387299
F        4.37348095       5.18402404      -4.98100262
C        5.30178921       3.04656252      -5.31696899
C        5.19776101       1.67539133      -5.14182514
F        6.16455496       0.87625456      -5.61118472
C        4.10538546       1.11138726      -4.48351160
H        2.80993650       1.81437008      -1.34506956
H        1.41625733       2.83936120      -1.76532794
H        2.05505995       0.21150384      -3.22281052
H        0.39934366       2.60710490      -4.24198761
H       -0.29803841       1.17051850      -3.46304809
H        2.42367555       3.99990325      -3.80073730
H        6.15433613       3.47519741      -5.82938110
H        4.06835084       0.02983047      -4.37688248
C        0.53669435       0.84959776      -5.26661219
C        0.51052662       0.26146909      -6.31915954
Br       0.46821561      -0.68948523      -8.02103957
C       -1.82682123      -1.82682123      -1.82682123
C       -3.22574305      -2.00255720      -1.22163255
C       -4.05684225      -0.71748094      -1.35529641
C       -3.91157724      -3.19673329      -1.88133390
C       -4.16777482      -3.23775485      -3.26162373
C       -4.79624438      -4.34689605      -3.82798070
F       -5.02719134      -4.36411848      -5.14719779
C       -5.18273866      -5.42931292      -3.05326914
C       -4.93244183      -5.39219778      -1.69033787
F       -5.29840091      -6.42854468      -0.92504865
C       -4.30411001      -4.29598204      -1.10019227
H       -1.29074606      -2.77867761      -1.89995245
H       -1.84882851      -1.35712531      -2.81499265
H       -3.10921029      -2.22804489      -0.15211912
H       -4.36046353      -0.50401425      -2.38395839
H       -3.53781686       0.15671734      -0.95442867
H       -3.88990275      -2.41710883      -3.91730452
H       -5.67106927      -6.28542351      -3.50242186
H       -4.13556810      -4.31345184      -0.02604383
C       -5.26937567      -0.80054268      -0.58298596
C       -6.28487242      -0.87010688       0.06382405
Br      -7.92684476      -0.98258631       1.10966112
C       -1.82682123       1.82682123       1.82682123
C       -1.42405681       3.30362982       1.72224618
C       -1.85109710       3.90421712       0.37430538
C       -2.01725761       4.07037669       2.90201012
C       -3.40286020       4.14554576       3.11874745
C       -3.90710379       4.85545609       4.20856125
F       -5.23217720       4.91031970       4.39601071
C       -3.06444331       5.50113438       5.09974303
C       -1.69622720       5.43005117       4.88869910
F       -0.86574177       6.04735241       5.73890006
C       -1.16699952       4.72538256       3.80790224
H       -1.69123482       1.43715462       2.84098669
H       -2.86001220       1.64648638       1.51444789
H       -0.32899250       3.36489042       1.79549138
H       -2.93307337       4.03342561       0.28193718
H       -1.49464292       3.31548492      -0.47459965
H       -4.11096449       3.66184942       2.45150219
H       -3.46589950       6.05067767       5.94233747
H       -0.08690161       4.70461238       3.68354980
C       -1.26845721       5.20637770       0.17806939
C       -0.78049630       6.29693719       0.01372175
Br       0.00849522       8.06027965      -0.25201449
C        1.82682123      -1.82682123       1.82682123
C        3.29403571      -1.77483071       1.38106639
C        3.94300029      -0.43313051       1.75348880
C        4.04461830      -2.95902029       1.98600584
C        4.15273985      -3.13983435       3.37457921
C        4.84648835      -4.23497711       3.88965568
F        4.93341969      -4.38760953       5.21747839
C        5.44363647      -5.16664686       3.05503739
C        5.33993057      -4.99116145       1.68388546
F        5.91018557      -5.88075177       0.86105689
C        4.65047131      -3.90585882       1.14395419
H        1.40592689      -2.83296373       1.73048551
H        1.68419361      -1.48138342       2.85536944
H        3.32247745      -1.87966934       0.28722751
H        4.10503614      -0.31489323       2.82850680
H        3.36790541       0.42192279       1.38954557
H        3.70754808      -2.44015797       4.07661005
H        5.98100953      -6.01306334       3.46484177
H        4.60276624      -3.81053766       0.06175988
C        5.23315182      -0.28955814       1.13019434
C        6.31365374      -0.16931628       0.60818523
Br       8.06073394       0.02510465      -0.23585935
C       -0.00445707       0.01189536      -1.78238275
H       -0.66409135       0.67374010      -2.43557963
H        0.65740317      -0.63156657      -2.45157240
C       -0.90989263      -0.90692880      -0.91072765
C        0.90977584       0.90977584      -0.90977584
C       -0.00465871       1.77757030       0.00794375
H       -0.66225468       2.44313916      -0.64384735
H        0.64322798       2.43503045       0.67728295
C       -1.78241447       0.00034974      -0.00472694
H       -2.45427497      -0.65498947       0.64260836
H       -2.43311707       0.67328779      -0.65473579
C       -0.91132561       0.90220522       0.91563759
C       -0.01476271      -0.02253852       1.78660255
H       -0.67934791      -0.69751639       2.42135241
H        0.63392994       0.61504881       2.47327442
C        0.01484550      -1.77751727      -0.01636693
H        0.67870853      -2.42144646      -0.68295456
H       -0.62264859      -2.45592969       0.64226336
C        1.78714474       0.01002794       0.00389507
H        2.44202412       0.67113390       0.66197326
H        2.45385902      -0.65136977      -0.64189061
C        0.91606151      -0.90478549       0.90901405
