102
Properties=species:S:1:pos:R:3 pbc="F F F"
C        1.82682123       1.82682123      -1.82682123
C        1.88741821       1.29702601      -3.26548858
C        0.56793940       1.55184096      -4.00983924
Br       0.52551282       0.59828908      -5.71636800
C        3.07833565       1.92827389      -3.98303488
C        3.18695866       3.31687722      -4.16331753
C        4.29079326       3.85645488      -4.82387299
F        4.37348095       5.18402404      -4.98100262
C        5.30178921       3.04656252      -5.31696899
C        5.19776101       1.67539133      -5.14182514
F        6.16455496       0.87625456      -5.61118472
C        4.10538546       1.11138726      -4.48351160
H        2.80993650       1.81437008      -1.34506956
H        1.41625733       2.83936120      -1.76532794
H        2.05505995       0.21150384      -3.22281052
H        0.39934366       2.60710490      -4.24198761
H       -0.29803841       1.17051850      -3.46304809
H        2.42367555       3.99990325      -3.80073730
H        6.15433613       3.47519741      -5.82938110
H        4.06835084       0.02983047      -4.37688248
C       -1.82682123      -1.82682123      -1.82682123
C       -2.38716968      -3.02043123      -1.04233190
C       -3.48651337      -2.57869183      -0.06441440
Br      -3.96837877      -4.02812958       1.15633845
C       -2.88836941      -4.07618643      -2.02508858
C       -3.91350557      -3.80704911      -2.94659873
C       -4.34417767      -4.79769550      -3.82924797
F       -5.32134989      -4.51620707      -4.70095064
C       -3.77942632      -6.06347250      -3.82242191
C       -2.76796275      -6.33329725      -2.91371748
F       -2.20972863      -7.55046723      -2.89179838
C       -2.31834225      -5.35980334      -2.02213873
H       -1.17588317      -2.14634141      -2.64715155
H       -2.61136598      -1.17929631      -2.23028417
H       -1.56587200      -3.46268796      -0.46081434
H       -4.41143276      -2.27462581      -0.56237759
H       -3.15849073      -1.76810982       0.59107236
H       -4.39485122      -2.83415465      -2.99531023
H       -4.12159495      -6.82615292      -4.51116678
H       -1.52612369      -5.62348504      -1.32545505
C       -1.82682123       1.82682123       1.82682123
C       -1.16847994       3.18653873       2.09491414
C       -1.20435475       4.07972689       0.84553797
Br      -0.08940038       5.66847652       1.08229300
C       -1.85207971       3.84837418       3.28919053
C       -3.21990990       4.16693605       3.28030745
C       -3.80894320       4.77095886       4.39121907
F       -5.11584416       5.06252487       4.36013858
C       -3.06931850       5.07181130       5.52419092
C       -1.71872921       4.75977694       5.53647132
F       -0.98726607       5.04264324       6.62208492
C       -1.10655745       4.15419676       4.43953011
H       -1.96845998       1.25266322       2.74825293
H       -2.78989525       1.91617332       1.31487790
H       -0.11701540       3.00998509       2.36237381
H       -2.20723639       4.44052047       0.60067931
H       -0.78657908       3.58215484      -0.03320573
H       -3.84816651       3.95716708       2.41898250
H       -3.53580417       5.54182828       6.38128219
H       -0.04304067       3.93484499       4.49717812
C        1.82682123      -1.82682123       1.82682123
C        3.30514091      -1.71244091       1.43235098
C        3.89642305      -0.36364400       1.86955256
Br       5.66726142      -0.08382739       1.08908109
C        4.07495648      -2.89128424       2.02340370
C        4.14403680      -3.11488402       3.40823259
C        4.85700975      -4.20360981       3.91050158
F        4.90594721      -4.39771120       5.23484920
C        5.51173225      -5.08698639       3.06660208
C        5.44667689      -4.86914965       1.69915094
F        6.07274493      -5.71175823       0.86749107
C        4.73912299      -3.78928233       1.17187900
H        1.44318595      -2.84227966       1.68391052
H        1.63946913      -1.52081005       2.86066729
H        3.37249156      -1.77962696       0.33725579
H        4.01950432      -0.27627409       2.95265775
H        3.30511689       0.48403686       1.51444816
H        3.65316655      -2.45388849       4.11726106
H        6.06358295      -5.92879689       3.46653481
H        4.72333173      -3.65938212       0.09234993
C       -0.00445707       0.01189536      -1.78238275
H       -0.66409135       0.67374010      -2.43557963
H        0.65740317      -0.63156657      -2.45157240
C       -0.90989263      -0.90692880      -0.91072765
C        0.90977584       0.90977584      -0.90977584
C       -0.00465871       1.77757030       0.00794375
H       -0.66225468       2.44313916      -0.64384735
H        0.64322798       2.43503045       0.67728295
C       -1.78241447       0.00034974      -0.00472694
H       -2.45427497      -0.65498947       0.64260836
H       -2.43311707       0.67328779      -0.65473579
C       -0.91132561       0.90220522       0.91563759
C       -0.01476271      -0.02253852       1.78660255
H       -0.67934791      -0.69751639       2.42135241
H        0.63392994       0.61504881       2.47327442
C        0.01484550      -1.77751727      -0.01636693
H        0.67870853      -2.42144646      -0.68295456
H       -0.62264859      -2.45592969       0.64226336
C        1.78714474       0.01002794       0.00389507
H        2.44202412       0.67113390       0.66197326
H        2.45385902      -0.65136977      -0.64189061
C        0.91606151      -0.90478549       0.90901405
