178
Properties=species:S:1:pos:R:3 pbc="F F F"
C        1.82460381       1.82460381      -1.82460381
C        1.04032818       2.84575800      -2.66623745
H        1.80763010       3.44592129      -3.17924247
C        0.23651135       2.16991060      -3.76898900
C        0.86800527       1.86480805      -4.98770595
C        0.16635923       1.22924430      -6.01155071
F        0.79370485       0.95237308      -7.16199036
C       -1.16525720       0.87913573      -5.85812082
C       -1.79157505       1.17171302      -4.65671354
C       -1.10954903       1.80436797      -3.61680587
F       -3.07832086       0.83920228      -4.48883957
C        0.26357622       3.85917876      -1.78883819
C       -0.29267081       5.04948860      -2.59168016
C       -0.86881279       6.17022695      -1.69292191
H       -0.07165368       6.46722132      -0.99670053
C       -2.06066237       5.68504776      -0.87762694
C       -3.28166010       5.33501749      -1.47478615
C       -4.35694098       4.92052560      -0.68865928
F       -5.51738340       4.60779405      -1.27990966
C       -4.24893857       4.83174197       0.69081735
C       -3.04044502       5.16311137       1.28282152
C       -1.95317118       5.58457812       0.51950261
F       -2.91393380       5.07709443       2.61375019
C       -1.20502165       7.39557515      -2.55723835
Br      -1.57928713       8.96167842      -1.45115859
H        2.40162307       1.13763454      -2.45212127
H        2.51475693       2.32879215      -1.14056173
H        1.91245023       2.11433769      -5.15781742
H       -1.70386426       0.38436143      -6.65702565
H       -1.65247480       1.99353386      -2.69503877
H        0.94899520       4.24887350      -1.02414944
H       -0.55297502       3.36611770      -1.25143328
H       -1.05754399       4.70368370      -3.29646193
H        0.52179380       5.46979749      -3.19561874
H       -3.42293059       5.38500569      -2.55076727
H       -5.09127322       4.51124023       1.29225804
H       -1.03002688       5.83955486       1.03279143
H       -0.35402391       7.68886059      -3.17957288
H       -2.07654175       7.25032922      -3.20141399
C       -1.82460381      -1.82460381      -1.82460381
C       -1.11037873      -3.07390330      -2.36804160
H       -1.88603921      -3.63555178      -2.91120288
C       -0.05531004      -2.71447058      -3.40563033
C       -0.44582919      -2.53081186      -4.74387821
C        0.49154167      -2.18283343      -5.71586248
F        0.09057114      -2.01586156      -6.98277788
C        1.82716629      -2.00607747      -5.39308817
C        2.21721180      -2.17967971      -4.07438361
C        1.29716877      -2.52493482      -3.08385876
F        3.50405308      -2.01125015      -3.74252392
C       -0.64807338      -4.02645625      -1.23706354
C       -0.19017311      -5.40163661      -1.75668823
C        0.05541025      -6.42659583      -0.62315049
H       -0.87151786      -6.48557764      -0.03517267
C        1.18267429      -5.98716263       0.30247600
C        2.51774432      -5.92046722      -0.12542064
C        3.52362872      -5.53819975       0.76232713
F        4.79253495      -5.49823460       0.33537935
C        3.23585210      -5.20493634       2.07709819
C        1.91684402      -5.25608205       2.49939321
C        0.89483009      -5.63961474       1.63288032
F        1.61749370      -4.93100711       3.76410297
C        0.30160045      -7.81478457      -1.23460772
Br       0.24596771      -9.21053867       0.13102109
H       -2.18254311      -1.17716447      -2.63167129
H       -2.68014165      -2.10303391      -1.20093526
H       -1.48209633      -2.65333167      -5.04917734
H        2.54973392      -1.73440620      -6.15285054
H        1.66320214      -2.63261000      -2.06668997
H       -1.49133824      -4.18036668      -0.55031322
H        0.15418461      -3.57223225      -0.64652832
H        0.71466813      -5.29186080      -2.36540897
H       -0.96868531      -5.79634668      -2.42217805
H        2.80106421      -6.16977823      -1.14412835
H        4.02517796      -4.91198538       2.75909845
H       -0.12177897      -5.67025298       2.01529539
H       -0.48862537      -8.08345107      -1.94233313
H        1.26818315      -7.90573422      -1.73765040
C       -1.82460381       1.82460381       1.82460381
C       -3.09126912       1.12058893       2.34046558
H       -3.57266202       1.84906328       3.01106857
C       -4.09062467       0.86441754       1.22036875
C       -4.98220807       1.88712351       0.85118769
C       -5.89743039       1.69244942      -0.18272558
F       -6.73531287       2.68422240      -0.51146698
C       -5.95313097       0.49349724      -0.87462886
C       -5.07259737      -0.51632568      -0.51942017
C       -4.14610289      -0.34400570       0.50952762
F       -5.11002383      -1.68213425      -1.17816859
C       -2.76298034      -0.09478518       3.24339801
C       -3.99293060      -0.63807324       3.99364059
C       -3.63160286      -1.69872172       5.06145493
H       -2.89537317      -1.23933688       5.73623187
C       -3.00203993      -2.93777221       4.43774461
C       -3.72718377      -3.80728167       3.60824144
C       -3.11942243      -4.94574481       3.07856629
F       -3.83657539      -5.76950472       2.30324964
C       -1.79128341      -5.24290365       3.34360629
C       -1.06811566      -4.37915189       4.15088106
C       -1.65414483      -3.23808048       4.69583998
F        0.21847717      -4.64512441       4.41301202
C       -4.87887585      -2.02776309       5.89667908
Br      -4.41439385      -3.06585306       7.48500909
H       -2.06594339       2.70509920       1.22033628
H       -1.18672927       2.14140186       2.65597969
H       -4.97699305       2.84828916       1.35932313
H       -6.66560120       0.34955397      -1.67763235
H       -3.47406493      -1.16847011       0.73050301
H       -2.01691031       0.21933767       3.98577016
H       -2.30263874      -0.90064000       2.66257721
H       -4.71495378      -1.05385966       3.28150751
H       -4.49331149       0.20256794       4.49133061
H       -4.77029732      -3.62388668       3.36643173
H       -1.32976498      -6.13133848       2.92928247
H       -1.04577447      -2.59717547       5.32813756
H       -5.34952132      -1.11878407       6.28367231
H       -5.62980481      -2.60631206       5.35170872
C        1.82460381      -1.82460381       1.82460381
C        3.33169288      -1.57136154       1.64926921
H        3.82079689      -2.21729704       2.39469994
C        3.83079798      -2.05154183       0.29307115
C        4.18450815      -3.40299134       0.13301977
C        4.62743512      -3.87992823      -1.10020911
F        4.95869593      -5.17184519      -1.22247283
C        4.72886095      -3.04175206      -2.19861366
C        4.37573600      -1.70980584      -2.04869032
C        3.92708101      -1.21016807      -0.82562428
F        4.46529194      -0.88429774      -3.09986869
C        3.73641693      -0.12942115       2.04575509
C        5.26069176       0.06186638       2.14967258
C        5.65979093       1.42662118       2.76116632
H        5.15813473       1.50223355       3.73636698
C        5.19937143       2.59141319       1.89405409
C        5.74196451       2.83694528       0.62312430
C        5.31054391       3.93072597      -0.12757404
F        5.85519422       4.15421493      -1.33065899
C        4.33457156       4.79225020       0.34966469
C        3.78643400       4.54488861       1.59829943
C        4.20419886       3.46166023       2.36936570
F        2.83714299       5.36176993       2.07403738
C        7.17443058       1.44669013       3.02005139
Br       7.68428896       2.97522813       4.12448904
H        1.55432344      -2.85698390       1.58007153
H        1.51043749      -1.62045267       2.85322065
H        4.11919597      -4.10337474       0.96203463
H        5.07232577      -3.41917914      -3.15398209
H        3.65232331      -0.16026304      -0.77648851
H        3.29281623       0.09579152       3.02499343
H        3.32267030       0.60045468       1.34236034
H        5.72310333      -0.05648560       1.16301271
H        5.66687401      -0.73716053       2.78317549
H        6.50877316       2.19486888       0.19893809
H        4.00868863       5.64046546      -0.24051420
H        3.74789331       3.31581067       3.34465392
H        7.49179979       0.56937347       3.59198325
H        7.77325479       1.50508468       2.10703136
C       -0.00445707       0.01189536      -1.78238275
H       -0.66409135       0.67374010      -2.43557963
H        0.65740317      -0.63156657      -2.45157240
C       -0.90989263      -0.90692880      -0.91072765
C        0.90977584       0.90977584      -0.90977584
C       -0.00465871       1.77757030       0.00794375
H       -0.66225468       2.44313916      -0.64384735
H        0.64322798       2.43503045       0.67728295
C       -1.78241447       0.00034974      -0.00472694
H       -2.45427497      -0.65498947       0.64260836
H       -2.43311707       0.67328779      -0.65473579
C       -0.91132561       0.90220522       0.91563759
C       -0.01476271      -0.02253852       1.78660255
H       -0.67934791      -0.69751639       2.42135241
H        0.63392994       0.61504881       2.47327442
C        0.01484550      -1.77751727      -0.01636693
H        0.67870853      -2.42144646      -0.68295456
H       -0.62264859      -2.45592969       0.64226336
C        1.78714474       0.01002794       0.00389507
H        2.44202412       0.67113390       0.66197326
H        2.45385902      -0.65136977      -0.64189061
C        0.91606151      -0.90478549       0.90901405
