194
Properties=species:S:1:pos:R:3 pbc="F F F"
C        1.82578247       1.82578247      -1.82578247
C        1.74200403       1.41510433      -3.30158488
H        0.68138955       1.29876601      -3.56767545
C        2.31741578       2.53367080      -4.17131483
C        3.65249807       2.95355846      -4.05850903
C        4.14595676       3.95707846      -4.89296194
F        5.42284594       4.34201582      -4.76879550
C        3.34244816       4.56040324      -5.84846975
C        2.02450554       4.14705856      -5.96336627
C        1.50623150       3.14866347      -5.13966415
F        1.23375993       4.71352532      -6.88421097
C        2.43719686       0.05416012      -3.56174505
C        2.45730082      -0.29437165      -4.96291175
C        2.47387104      -0.58163132      -6.11776770
C        2.51940627      -0.99096647      -7.59033570
C        2.59158082      -1.35550838      -8.73001553
C        2.72367293      -1.84452912     -10.11252675
C        3.93939335      -2.78718514     -10.26854024
H        3.86482701      -3.55402998      -9.48316928
C        5.25450174      -2.03630432     -10.07445080
C        5.68146278      -1.03804556     -10.96434926
C        6.88766367      -0.37162770     -10.74825831
F        7.27506236       0.57548924     -11.61264498
C        7.68997085      -0.66912756      -9.65771388
C        7.26921763      -1.64990020      -8.77329950
C        6.06860723      -2.33142408      -8.96815084
F        8.02846061      -1.94850194      -7.71091945
C        3.86186167      -3.50453412     -11.62252459
Br       5.13954048      -4.97942153     -11.71485555
H        2.84119278       1.75389547      -1.42359572
H        1.45806825       2.84506850      -1.66717944
H        4.33063929       2.50544131      -3.33762404
H        3.73710102       5.33483173      -6.49469958
H        0.46973405       2.85105097      -5.27745734
H        1.92774036      -0.73828432      -3.00230483
H        3.46651316       0.08346897      -3.18242213
H        2.79169482      -0.99501628     -10.80223406
H        1.80520034      -2.38582163     -10.37175522
H        5.09121261      -0.75883452     -11.83235256
H        8.62445136      -0.14542299      -9.49879346
H        5.78094300      -3.09023127      -8.24477034
H        2.88381390      -3.97305541     -11.77000181
H        4.07281961      -2.85351635     -12.47513210
C       -1.82578247      -1.82578247      -1.82578247
C       -3.09785016      -2.26917118      -1.09167189
H       -3.54693939      -1.38569269      -0.61519893
C       -4.10544116      -2.80981677      -2.10714348
C       -3.82654025      -3.92598402      -2.91204129
C       -4.78596206      -4.40562771      -3.80440739
F       -4.49921916      -5.47209428      -4.56234382
C       -6.02924052      -3.80260249      -3.91947814
C       -6.30818970      -2.70154027      -3.12520041
C       -5.36577301      -2.20080303      -2.22798309
F       -7.50563859      -2.10846744      -3.21739019
C       -2.78890830      -3.29393316       0.02973944
C       -3.98658772      -3.79843099       0.65917780
C       -4.97372840      -4.21424273       1.17796371
C       -6.21447570      -4.77671241       1.87241260
C       -7.15262631      -5.25699179       2.44353012
C       -8.26713893      -5.89143554       3.16690391
C       -7.86768489      -7.27732916       3.72426560
H       -6.92994453      -7.14922503       4.28520324
C       -7.61406837      -8.27775069       2.59917084
C       -8.63830647      -8.71285049       1.74339047
C       -8.36377088      -9.62427141       0.72374801
F       -9.35814483     -10.02647468      -0.07857706
C       -7.08425841     -10.11893570       0.52463694
C       -6.06884228      -9.68732943       1.36355478
C       -6.31797098      -8.77827196       2.39090894
F       -4.82477309     -10.15037831       1.18427328
C       -8.93562584      -7.75908945       4.71486315
Br      -8.30802284      -9.30220378       5.73525212
H       -1.20522740      -2.66930718      -2.14414940
H       -2.05694141      -1.21116541      -2.70220937
H       -2.87463869      -4.44630069      -2.85276525
H       -6.76867935      -4.18629386      -4.61165913
H       -5.63729263      -1.34260212      -1.61834761
H       -2.15045436      -2.83271848       0.79141198
H       -2.21603867      -4.13460022      -0.38176537
H       -9.14141745      -5.96721597       2.50972082
H       -8.55442182      -5.23253736       3.99582525
H       -9.65835309      -8.35468776       1.84831021
H       -6.88162876     -10.82587171      -0.27032137
H       -5.48755254      -8.46817351       3.02024398
H       -9.15336376      -6.99603156       5.46863501
H       -9.87189117      -8.05940916       4.23686497
C       -1.82578247       1.82578247       1.82578247
C       -2.84471431       2.61777293       0.99620600
H       -3.32960405       1.92546648       0.29276048
C       -3.92880190       3.17206317       1.92153634
C       -3.63452593       4.06965390       2.96038573
C       -4.65807928       4.57538487       3.76253301
F       -4.35515205       5.43089311       4.74761210
C       -5.98064076       4.21247556       3.55820483
C       -6.27458240       3.32781151       2.53253646
C       -5.26994438       2.80571309       1.71890165
F       -7.54677488       2.96938845       2.31533289
C       -2.16520866       3.73041018       0.15748318
C       -3.12246495       4.55043062      -0.54705466
C       -3.91144718       5.22629897      -1.12773872
C       -4.88857245       6.12116999      -1.89096693
C       -5.60970292       6.85841971      -2.50203466
C       -6.44749892       7.80331032      -3.25913868
C       -5.73096542       9.15755179      -3.46776876
H       -4.73575475       8.94309017      -3.88487860
C       -5.54139200       9.89654461      -2.14528839
C       -6.62780165      10.37750625      -1.39754141
C       -6.41196819      11.04324627      -0.19092018
F       -7.46445918      11.49519635       0.50354104
C       -5.13221147      11.24382988       0.30251582
C       -4.05702726      10.76524080      -0.42965114
C       -4.24640103      10.09813610      -1.63920314
F       -2.81284140      10.94522567       0.03281105
C       -6.49675182       9.98857831      -4.50547799
Br      -5.44497342      11.52545068      -5.09544960
H       -1.15088124       2.47179056       2.39601217
H       -2.31696920       1.13455837       2.51878863
H       -2.61805906       4.39962812       3.15601746
H       -6.76810616       4.61511474       4.18341143
H       -5.55324103       2.12507646       0.91992487
H       -1.47457434       3.28332183      -0.56613530
H       -1.55485866       4.36787601       0.80966959
H       -7.40820380       7.93944766      -2.74873886
H       -6.67183880       7.35385870      -4.23456357
H       -7.65259123      10.24399220      -1.73185278
H       -4.97557003      11.76153526       1.24071655
H       -3.37114215       9.73913440      -2.17479448
H       -6.68495948       9.41283801      -5.41703718
H       -7.44691482      10.38279048      -4.13526994
C        1.82578247      -1.82578247       1.82578247
C        2.58652523      -1.00050779       2.87166022
H        1.87442190      -0.31700585       3.35640325
C        3.13827582      -1.93470761       3.94941798
C        4.05811189      -2.95332819       3.65312548
C        4.56023862      -3.76416317       4.67159537
F        5.43723736      -4.72958304       4.36683686
C        4.17194112      -3.58834031       5.99103973
C        3.26525693      -2.58267604       6.28699740
C        2.74625772      -1.76094981       5.28735160
F        2.88206530      -2.39305349       7.55637743
C        3.69595973      -0.13197872       2.22516357
C        4.48786989       0.56980422       3.20777524
C        5.14056948       1.14821762       4.01765556
C        6.00598401       1.90958457       5.02237607
C        6.72066317       2.52054481       5.76596961
C        7.63850767       3.27898256       6.63214545
C        9.00076804       3.52224825       5.94222866
H        8.79587848       3.95252595       4.95061379
C        9.76511136       2.21566148       5.74319833
C       10.24050730       1.45773415       6.82499334
C       10.93009336       0.26619848       6.60039940
F       11.37614829      -0.43836682       7.64868146
C       11.16029517      -0.20207949       5.31618251
C       10.68734805       0.54012157       4.24539045
C        9.99678878       1.73501266       4.44355788
F       10.89583977       0.10186304       2.99690138
C        9.80122687       4.56053518       6.73916045
Br      11.34519116       5.19375550       5.72353884
H        2.49250894      -2.37365877       1.15251626
H        1.13831068      -2.53842673       2.29357878
H        4.40823775      -3.12619057       2.63927631
H        4.57194042      -4.22000263       6.77468928
H        2.04756058      -0.97833442       5.57234736
H        3.24824393       0.59568712       1.53920406
H        4.35445940      -0.76302432       1.61492054
H        7.76725004       2.75472108       7.58638364
H        7.16892348       4.24284570       6.86505615
H       10.08429844       1.77236843       7.85280065
H       11.69635568      -1.12873884       5.15272732
H        9.64339498       2.27929900       3.57138609
H        9.20707331       5.45905914       6.93274613
H       10.18577213       4.18090314       7.68956637
C       -0.00445707       0.01189536      -1.78238275
H       -0.66409135       0.67374010      -2.43557963
H        0.65740317      -0.63156657      -2.45157240
C       -0.90989263      -0.90692880      -0.91072765
C        0.90977584       0.90977584      -0.90977584
C       -0.00465871       1.77757030       0.00794375
H       -0.66225468       2.44313916      -0.64384735
H        0.64322798       2.43503045       0.67728295
C       -1.78241447       0.00034974      -0.00472694
H       -2.45427497      -0.65498947       0.64260836
H       -2.43311707       0.67328779      -0.65473579
C       -0.91132561       0.90220522       0.91563759
C       -0.01476271      -0.02253852       1.78660255
H       -0.67934791      -0.69751639       2.42135241
H        0.63392994       0.61504881       2.47327442
C        0.01484550      -1.77751727      -0.01636693
H        0.67870853      -2.42144646      -0.68295456
H       -0.62264859      -2.45592969       0.64226336
C        1.78714474       0.01002794       0.00389507
H        2.44202412       0.67113390       0.66197326
H        2.45385902      -0.65136977      -0.64189061
C        0.91606151      -0.90478549       0.90901405
