130
Properties=species:S:1:pos:R:3 pbc="F F F"
C        1.82520535       1.82520535      -1.82520535
C        1.16335434       2.11168968      -3.17792666
H        0.12331915       2.41958723      -3.00975179
C        1.16954074       0.86075228      -4.08721187
C        0.41251180       1.06600670      -5.40913234
C        0.25693127      -0.23330850      -6.22905234
H       -0.18708017      -0.98747850      -5.56469355
C       -0.72821058      -0.07193165      -7.39250397
C        1.60352550      -0.79870160      -6.69445882
C        1.89717918       3.28303190      -3.84275898
H        2.78820269       1.31432695      -1.93093044
H        1.97237072       2.74227920      -1.24613048
H        0.70983852       0.01767944      -3.55906221
H        2.20679171       0.57544890      -4.29457517
H        0.93275305       1.81761141      -6.00892621
H       -0.58501598       1.46377196      -5.18289401
H       -1.70861459       0.25711105      -7.03861797
H       -0.85545977      -1.01297938      -7.93775284
H        2.17741637      -0.06531381      -7.26940913
H        1.45688965      -1.68469418      -7.31950794
H        2.21691482      -1.10541434      -5.84124414
H        1.38800871       3.61019115      -4.75350521
H        2.92476793       3.00937984      -4.10360012
H        1.93780767       4.14760787      -3.17227329
C       -0.31361946       0.89808115      -8.37270260
C        0.03360060       1.71046687      -9.19361896
Br       0.59502608       3.02402588     -10.52097128
C       -1.82520535      -1.82520535      -1.82520535
C       -3.27409669      -1.85355386      -1.32532013
H       -3.60337292      -0.82621264      -1.12307261
C       -3.40856514      -2.68234926      -0.02659049
C       -4.82177599      -2.64256561       0.57669076
C       -4.90889545      -3.31020494       1.96642528
H       -4.13364785      -2.85367832       2.59719129
C       -6.24059945      -3.01996534       2.66820306
C       -4.60429039      -4.81164664       1.91665431
C       -4.16415251      -2.42035998      -2.43845758
H       -1.36960186      -2.82102314      -1.84283508
H       -1.75202103      -1.38438759      -2.82437178
H       -2.70641479      -2.30632224       0.72615686
H       -3.12321364      -3.71957165      -0.23403049
H       -5.51965126      -3.13090407      -0.10873535
H       -5.13423342      -1.59438481       0.66696824
H       -6.40989377      -1.94470793       2.76748727
H       -6.26835282      -3.46795877       3.66699791
H       -5.25659808      -5.33739479       1.21248117
H       -4.73007167      -5.26576925       2.90413751
H       -3.56937346      -4.99265197       1.60928081
H       -5.22432687      -2.34643007      -2.18094812
H       -3.93120448      -3.47211746      -2.63442595
H       -4.02309182      -1.86387409      -3.37072292
C       -7.38839591      -3.54011862       1.97135024
C       -8.34967545      -3.97574700       1.38773601
Br      -9.90398315      -4.68012123       0.44408115
C       -1.82520535       1.82520535       1.82520535
C       -1.06065411       2.34379600       3.04852056
H       -0.09006458       2.73965838       2.72293521
C       -0.81643776       1.21931138       4.08175575
C        0.04856032       1.66430707       5.27190410
C        0.44860014       0.49873014       6.20254511
H        0.90645657      -0.27807771       5.57466917
C        1.52686277       0.90585525       7.21336926
C       -0.76103443      -0.14824908       6.88649737
C       -1.85509237       3.50093015       3.66694755
H       -2.70187920       1.22981158       2.10176930
H       -2.14445527       2.64380021       1.17252492
H       -0.31756624       0.37302892       3.59598501
H       -1.78278613       0.85080415       4.44322550
H       -0.49118278       2.42249485       5.84561305
H        0.96001072       2.13718880       4.88447191
H        2.41595901       1.29357045       6.70950299
H        1.82571536       0.05734226       7.83768678
H       -1.35418683       0.58314331       7.44418155
H       -0.44111000      -0.93064879       7.58124220
H       -1.42128272      -0.62087542       6.15233731
H       -1.29393597       3.98944694       4.46832216
H       -2.80753819       3.15146082       4.07874888
H       -2.07273410       4.26814501       2.91680971
C        1.10597654       1.93718275       8.12595808
C        0.75348431       2.80091954       8.89025121
Br       0.18353421       4.19750888      10.12604857
C        1.82520535      -1.82520535       1.82520535
C        2.94619181      -2.48927301       1.01750586
H        3.43189761      -1.73175273       0.38900783
C        2.39833587      -3.61256723       0.10660179
C        3.46795832      -4.22891014      -0.80921761
C        2.88620611      -5.21344675      -1.84697776
H        2.08113197      -4.68855505      -2.37955214
C        3.91118132      -5.60045383      -2.91927342
C        2.24859158      -6.44529023      -1.19459908
C        3.99704062      -3.03164902       1.99428043
H        1.16853455      -2.55655694       2.30836859
H        2.22402210      -1.14892552       2.58783278
H        1.59558239      -3.21692740      -0.52592963
H        1.95151156      -4.39318180       0.73212242
H        4.21459338      -4.74125525      -0.19655795
H        3.98335153      -3.41827835      -1.33997989
H        4.30134379      -4.71716142      -3.43139077
H        3.46976477      -6.26705560      -3.66750669
H        2.95132377      -6.97047322      -0.54028529
H        1.89788958      -7.14916364      -1.95534981
H        1.37928760      -6.16479300      -0.59133598
H        4.87953658      -3.40483859       1.46732989
H        3.58966680      -3.84677075       2.60131035
H        4.34044957      -2.24420883       2.67303043
C        5.05893611      -6.29745457      -2.39922638
C        6.02018075      -6.88119268      -1.96368699
Br       7.57443203      -7.82504784      -1.25945663
C       -0.00445707       0.01189536      -1.78238275
H       -0.66409135       0.67374010      -2.43557963
H        0.65740317      -0.63156657      -2.45157240
C       -0.90989263      -0.90692880      -0.91072765
C        0.90977584       0.90977584      -0.90977584
C       -0.00465871       1.77757030       0.00794375
H       -0.66225468       2.44313916      -0.64384735
H        0.64322798       2.43503045       0.67728295
C       -1.78241447       0.00034974      -0.00472694
H       -2.45427497      -0.65498947       0.64260836
H       -2.43311707       0.67328779      -0.65473579
C       -0.91132561       0.90220522       0.91563759
C       -0.01476271      -0.02253852       1.78660255
H       -0.67934791      -0.69751639       2.42135241
H        0.63392994       0.61504881       2.47327442
C        0.01484550      -1.77751727      -0.01636693
H        0.67870853      -2.42144646      -0.68295456
H       -0.62264859      -2.45592969       0.64226336
C        1.78714474       0.01002794       0.00389507
H        2.44202412       0.67113390       0.66197326
H        2.45385902      -0.65136977      -0.64189061
C        0.91606151      -0.90478549       0.90901405
