170
Properties=species:S:1:pos:R:3 pbc="F F F"
C        1.79227286       1.79227286      -1.79227286
C        1.27486566       2.33715044      -2.95963566
C        2.08761955       3.13679616      -3.76573407
C        3.42653837       3.41255297      -3.41718520
C        3.94381112       2.83882421      -2.23066459
C        3.11321296       2.03602179      -1.42709156
C        5.36922826       3.04392858      -1.79346541
C        4.28177705       4.28320270      -4.33486749
H        5.25374149       4.46032437      -3.86689828
C        3.65908323       5.70416165      -4.66416166
H        2.67313864       5.52712959      -5.10241623
C        3.52679844       6.63259715      -3.45882168
C        4.65188443       6.89148095      -2.64813554
C        4.57068342       7.73281444      -1.53716841
C        3.36295493       8.34157894      -1.22536909
C        2.24049334       8.12451646      -2.02025785
C        2.30812536       7.28081543      -3.14478104
C        1.06256574       7.09872816      -3.97106354
Br       3.24467318       9.47940178       0.27913202
N        4.43347517       6.37790212      -5.73707721
N        4.60774602       3.54977456      -5.58195058
H        0.24791725       2.14143308      -3.25641993
H        1.66185981       3.53403761      -4.68403385
H        3.50610571       1.59269991      -0.51498869
H        5.58970738       2.50460860      -0.86530833
H        5.56268878       4.10416837      -1.60297741
H        6.06015760       2.67129299      -2.55712879
H        5.61445532       6.43736033      -2.87317301
H        5.45289160       7.90386887      -0.92648581
H        1.30291046       8.61573706      -1.76623805
H        0.72091026       6.06042547      -3.92169716
H        1.25170468       7.37902410      -5.01256169
H        0.24341426       7.73132563      -3.61213247
H        5.37504440       6.56012853      -5.39028142
H        4.01953739       7.29765031      -5.89279300
H        4.96333037       4.25997381      -6.23188068
H        3.73733174       3.24263740      -6.01225942
C       -1.79227286      -1.79227286      -1.79227286
C       -2.89921887      -2.42704051      -1.24539238
C       -3.69787309      -3.23776194      -2.05451475
C       -3.41054789      -3.42242818      -3.42330047
C       -2.27071006      -2.77924325      -3.96334661
C       -1.47544053      -1.96408662      -3.13679916
C       -1.86074166      -2.94383278      -5.40204781
C       -4.30533398      -4.32714361      -4.26736965
H       -3.98647749      -4.28241053      -5.31207612
C       -5.84485483      -3.94748789      -4.23506382
H       -6.15524345      -3.96069895      -3.18674206
C       -6.17573522      -2.59028467      -4.85219738
C       -5.73994962      -2.29137924      -6.16017206
C       -6.02098888      -1.06164027      -6.75803712
C       -6.75606315      -0.11283213      -6.06100767
C       -7.22051751      -0.38740072      -4.77734941
C       -6.94697389      -1.62378905      -4.16295890
C       -7.48957950      -1.86376549      -2.77901245
Br      -7.13768315       1.55557745      -6.86283724
N       -6.65802261      -5.00768956      -4.88274234
N       -4.10537770      -5.74666778      -3.88742567
H       -3.14559209      -2.30632635      -0.19385182
H       -4.54688869      -3.73808664      -1.59495593
H       -0.59859539      -1.46830715      -3.54689178
H       -0.94312010      -2.38883771      -5.62766650
H       -2.63998256      -2.56127831      -6.06857368
H       -1.66535536      -3.99810255      -5.62512147
H       -5.17100408      -3.01857241      -6.73541217
H       -5.66225305      -0.85784009      -7.76315314
H       -7.80219492       0.36475622      -4.24744686
H       -6.67026681      -1.97101401      -2.06175207
H       -8.11577612      -2.76196057      -2.76555377
H       -8.11554006      -1.03100911      -2.44032319
H       -6.40311975      -5.05319467      -5.86913993
H       -7.63343769      -4.70786243      -4.86868058
H       -4.89046835      -6.25577078      -4.30894574
H       -4.26760361      -5.83839316      -2.88623180
C       -1.79227286       1.79227286       1.79227286
C       -3.12676108       1.98390961       1.46098107
C       -3.92658292       2.79682166       2.26674520
C       -3.41116016       3.42528767       3.41982871
C       -2.04508846       3.23106295       3.73714850
C       -1.25097479       2.40826699       2.91708453
C       -1.39419989       3.88782704       4.92459532
C       -4.31993599       4.31476232       4.26514893
H       -3.78038584       4.64317942       5.15739888
C       -5.65332682       3.61343526       4.76064446
H       -6.17672093       3.25644996       3.86951358
C       -5.43642671       2.45267737       5.72911319
C       -4.65703159       2.64542361       6.88904572
C       -4.43450938       1.60891574       7.79724115
C       -5.00036114       0.36265305       7.56688877
C       -5.79415437       0.14790609       6.44320718
C       -6.02920415       1.18422027       5.52029741
C       -6.90794725       0.89125086       4.33315933
Br      -4.70081111      -1.04634150       8.79047332
N       -6.57379906       4.60938407       5.36527138
N       -4.62471737       5.57300872       3.54174507
H       -3.55270654       1.51519364       0.57787008
H       -4.96279642       2.94483746       1.97229739
H       -0.20098315       2.25639058       3.15642059
H       -0.32969096       3.63670405       4.99322931
H       -1.86445539       3.55150140       5.85387777
H       -1.46589630       4.97775167       4.84493141
H       -4.20915202       3.61359875       7.10223789
H       -3.82077855       1.78641300       8.67605474
H       -6.23677715      -0.83331600       6.28142442
H       -6.33238808       0.96512358       3.40552124
H       -7.75274651       1.58729491       4.30324904
H       -7.32671351      -0.11991391       4.38007275
H       -6.13260190       4.99113977       6.20171267
H       -7.40017686       4.11160279       5.69820105
H       -5.41036782       5.99634574       4.04847131
H       -5.02217824       5.33529992       2.63475040
C        1.79227286      -1.79227286       1.79227286
C        1.24121467      -2.44205468       2.88838242
C        2.05352438      -3.24132122       3.69530419
C        3.42620141      -3.41200256       3.41807257
C        3.97642222      -2.73225116       2.30462654
C        3.14598080      -1.93108897       1.49925654
C        5.43607068      -2.82155891       1.94899266
C        4.27864118      -4.28663514       4.33457092
H        5.28668845      -4.37365062       3.92062508
C        3.73040585      -5.76116452       4.53583617
H        2.71024633      -5.67316409       4.91927405
C        3.73205980      -6.61591682       3.27024065
C        4.91875719      -6.75286659       2.51987714
C        4.95991395      -7.52386651       1.35688580
C        3.81534203      -8.18346918       0.93109175
C        2.63492754      -8.08699279       1.66334732
C        2.57927783      -7.31533764       2.83910637
C        1.27660799      -7.26321625       3.59253320
Br       3.86269400      -9.22655624      -0.64430730
N        4.48012783      -6.45463496       5.61369172
N        4.47999595      -3.61704545       5.64242975
H        0.18760556      -2.32877461       3.12939009
H        1.59933500      -3.72234884       4.55824743
H        3.56407220      -1.40656289       0.64315923
H        5.67718952      -2.21085828       1.07157651
H        5.70900903      -3.85350796       1.70731756
H        6.05370213      -2.45783811       2.77703914
H        5.83443086      -6.25658478       2.83397301
H        5.88684465      -7.60105446       0.79534718
H        1.74830793      -8.61683163       1.31974601
H        0.87206563      -6.24659595       3.58437131
H        1.41982199      -7.59834963       4.62511884
H        0.52348617      -7.91987784       3.14350834
H        5.45086260      -6.55643023       5.31816151
H        4.11791994      -7.40600077       5.68605999
H        4.84064692      -4.34490429       6.26963366
H        3.56696769      -3.39191482       6.03334605
C       -0.00445707       0.01189536      -1.78238275
H       -0.66409135       0.67374010      -2.43557963
H        0.65740317      -0.63156657      -2.45157240
C       -0.90989263      -0.90692880      -0.91072765
C        0.90977584       0.90977584      -0.90977584
C       -0.00465871       1.77757030       0.00794375
H       -0.66225468       2.44313916      -0.64384735
H        0.64322798       2.43503045       0.67728295
C       -1.78241447       0.00034974      -0.00472694
H       -2.45427497      -0.65498947       0.64260836
H       -2.43311707       0.67328779      -0.65473579
C       -0.91132561       0.90220522       0.91563759
C       -0.01476271      -0.02253852       1.78660255
H       -0.67934791      -0.69751639       2.42135241
H        0.63392994       0.61504881       2.47327442
C        0.01484550      -1.77751727      -0.01636693
H        0.67870853      -2.42144646      -0.68295456
H       -0.62264859      -2.45592969       0.64226336
C        1.78714474       0.01002794       0.00389507
H        2.44202412       0.67113390       0.66197326
H        2.45385902      -0.65136977      -0.64189061
C        0.91606151      -0.90478549       0.90901405
