194
Properties=species:S:1:pos:R:3 pbc="F F F"
C        1.79182311       1.79182311      -1.79182311
C        2.14462739       1.36147703      -3.06423508
C        2.95183694       2.17118956      -3.86493461
C        3.42363620       3.42355330      -3.40971446
C        3.05203479       3.84969685      -2.11139482
C        2.23676801       3.02301875      -1.31580604
C        3.50103268       5.16878466      -1.54123048
C        4.30960275       4.26845625      -4.32177195
H        4.57976230       5.19822890      -3.81310324
C        3.65178695       4.62772978      -5.55600961
C        3.10960485       4.92385509      -6.57327081
C        2.48641057       5.26422379      -7.74255453
C        1.94423403       5.56033968      -8.75982468
C        1.28641824       5.91961321      -9.99406235
H        0.59994279       5.10438524     -10.24003097
C        0.51642441       7.23451473      -9.89864132
C        1.20732071       8.42188772      -9.56727008
C        0.54961821       9.65083375      -9.49740295
C       -0.81342225       9.71388128      -9.75515675
C       -1.52376186       8.55951938     -10.07770245
C       -0.87450608       7.31308470     -10.15333208
C       -1.69735692       6.10026841     -10.50058521
N        2.25955060       5.96488456     -11.08675844
N        5.57475545       3.58661341      -4.60114252
H        1.80118659       0.40306877      -3.44300351
H        3.21440623       1.81672912      -4.85964958
H        1.95017843       3.34434884      -0.31654890
H        3.11171761       5.32550403      -0.52924342
H        3.13571157       5.99446107      -2.16072656
H        4.59342299       5.20533472      -1.47929768
H        2.27481710       8.39318206      -9.35557751
H        1.10932558      10.54652700      -9.24126598
H       -2.59234124       8.62686488     -10.27192540
H       -1.65693781       5.36930496      -9.68673045
H       -1.33355686       5.64598926     -11.42713610
H       -2.75061967       6.35740478     -10.65455715
H        2.94908396       6.68454593     -10.88464052
H        1.77587367       6.26855839     -11.92991102
H        6.13484314       4.18159329      -5.20832133
H        5.38265123       2.74311098      -5.13590797
C       -1.49683149      10.97960529      -9.68811536
C       -2.06918673      12.03964914      -9.63196819
Br      -2.99463675      13.75365040      -9.54118297
C       -1.79182311      -1.79182311      -1.79182311
C       -2.45362595      -1.23718766      -2.87952589
C       -3.25914525      -2.04788126      -3.68093460
C       -3.42091030      -3.42583221      -3.41016145
C       -2.73652498      -3.97694197      -2.29965951
C       -1.92699606      -3.14742636      -1.50117038
C       -2.84272011      -5.43370263      -1.93462508
C       -4.31872464      -4.26783597      -4.31327033
H       -4.32778548      -5.30299237      -3.96031658
C       -3.86692891      -4.28391773      -5.68467971
C       -3.49454741      -4.29718152      -6.81500182
C       -3.06653051      -4.31241998      -8.11423840
C       -2.69415769      -4.32567430      -9.24456640
C       -2.24236196      -4.34175605     -10.61597579
H       -1.76041944      -3.37836191     -10.80557766
C       -1.26423535      -5.47698302     -10.90836209
C       -1.67280215      -6.81497027     -10.70870609
C       -0.82231164      -7.88502055     -10.99052271
C        0.45495569      -7.63561482     -11.47495666
C        0.88945258      -6.32715704     -11.67575551
C        0.04313444      -5.23759586     -11.39744927
C        0.57197934      -3.84644998     -11.62902606
N       -3.39072326      -4.39835805     -11.52211229
N       -5.70822559      -3.81195996      -4.24232583
H       -2.35284323      -0.18116685      -3.11324880
H       -3.76666505      -1.59425232      -4.52986755
H       -1.40077826      -3.56504352      -0.64525439
H       -2.24160377      -5.67405465      -1.05080664
H       -2.47646364      -6.05872930      -2.75570627
H       -3.88059342      -5.69411802      -1.70334395
H       -2.66780999      -7.03188824     -10.32387844
H       -1.16654824      -8.90291973     -10.82765060
H        1.89526242      -6.15023609     -12.05147537
H        0.57354254      -3.28082832     -10.69181182
H       -0.03630923      -3.32738860     -12.37587067
H        1.60193278      -3.86259857     -12.00067648
H       -3.89987545      -5.26279832     -11.35559664
H       -3.03940539      -4.45889765     -12.47604004
H       -6.27187493      -4.39807943      -4.85480340
H       -5.76565279      -2.87129542      -4.62472197
C        1.33575445      -8.73569866     -11.77094494
C        2.07342342      -9.65701889     -12.01883513
Br       3.26617175     -11.14671576     -12.41965260
C       -1.79182311       1.79182311       1.79182311
C       -2.83809794       2.50759156       1.22465000
C       -3.63968539       3.31280390       2.03547182
C       -3.41033899       3.42038803       3.42617694
C       -2.34190692       2.68140904       3.98981049
C       -1.54273267       1.87290291       3.15995722
C       -2.02286660       2.72774311       5.46043810
C       -4.31156278       4.32019865       4.26806952
H       -3.99355756       4.28364531       5.31389157
C       -5.69672470       3.91455369       4.22424796
C       -6.83838232       3.58020959       4.18813885
C       -8.15064771       3.19591459       4.14662658
C       -9.29231062       2.86157967       4.11050810
C      -10.67747254       2.45593471       4.06668654
H      -10.85012543       2.01228758       3.08194599
C      -11.03962526       1.45174829       5.15820691
C      -10.87193286       1.80955964       6.51498601
C      -11.21717520       0.93463634       7.54604336
C      -11.73428517      -0.31679226       7.23812287
C      -11.90495816      -0.70142865       5.90993046
C      -11.56270128       0.17008063       4.85912879
C      -11.76440741      -0.30507031       3.44415959
N      -11.54711297       3.63170299       4.13237765
N       -4.18008382       5.72063479       3.86179276
H       -3.03928846       2.44918859       0.15878183
H       -4.45587935       3.86312857       1.57177700
H       -0.71895982       1.30483869       3.58727767
H       -1.16769277       2.08969733       5.70907496
H       -2.87602282       2.36917674       6.04569965
H       -1.76680026       3.74820618       5.76304895
H      -10.46242027       2.78345092       6.77770548
H      -11.07754370       1.23985335       8.57972151
H      -12.30707163      -1.68771962       5.68709704
H      -10.80922741      -0.31976526       2.90963544
H      -12.47313940       0.34460636       2.92182275
H      -12.16974346      -1.32190450       3.41350330
H      -11.39330260       4.10653064       5.01843717
H      -12.51347568       3.31091982       4.14994759
H       -4.79326440       6.28519635       4.44629701
H       -4.52851506       5.82151655       2.91163856
C      -12.09568219      -1.22249166       8.29769863
C      -12.39835218      -1.98101491       9.18509333
Br     -12.88774397      -3.20748285      10.61993550
C        1.79182311      -1.79182311       1.79182311
C        2.70460817      -2.65941169       1.20631964
C        3.50679990      -3.46373872       2.01742249
C        3.41102223      -3.41883340       3.42704833
C        2.47806882      -2.52632844       4.00872920
C        1.67663717      -1.72073791       3.17821772
C        2.30721128      -2.40427229       5.49956425
C        4.30634736      -4.32412534       4.26935824
H        4.10098776      -4.15922071       5.33088597
C        5.71134512      -4.06710616       4.05707507
C        6.86935331      -3.85525947       3.88211798
C        8.20041076      -3.61176825       3.68100988
C        9.35842239      -3.39993205       3.50604395
C       10.76342015      -3.14291287       3.29376078
H       10.87526366      -2.81175779       2.25733756
C       11.32560890      -2.08442546       4.23954611
C       11.26439402      -2.29677323       5.63531127
C       11.79177546      -1.37018080       6.53589864
C       12.38803924      -0.21150710       6.05606945
C       12.45758353       0.02974378       4.68562022
C       11.93146766      -0.89558990       3.76485314
C       12.03127578      -0.57583099       2.29638994
N       11.52315512      -4.38987899       3.39815949
N        4.00576364      -5.73540391       4.02134382
H        2.80097167      -2.72023516       0.12605204
H        4.21744149      -4.13453159       1.53881184
H        0.95642706      -1.03495534       3.61969377
H        1.54418978      -1.66244648       5.75982881
H        3.24481803      -2.08185092       5.96423026
H        1.99026945      -3.36117912       5.92660682
H       10.79569517      -3.19563264       6.03224887
H       11.73037164      -1.56305985       7.60368707
H       12.92414895       0.94531342       4.32761350
H       11.03216523      -0.51347687       1.85345549
H       12.62035621      -1.33952135       1.77969094
H       12.52337611       0.38737671       2.12534286
H       11.41707501      -4.76292892       4.33826648
H       12.51173045      -4.16870550       3.29390714
H        4.62051103      -6.30306793       4.60117880
H        4.24505432      -5.95830376       3.05831210
C       12.93715683       0.74655718       6.98028950
C       13.39704281       1.54893601       7.75432380
Br      14.14063954       2.84631472       9.00587179
C       -0.00445707       0.01189536      -1.78238275
H       -0.66409135       0.67374010      -2.43557963
H        0.65740317      -0.63156657      -2.45157240
C       -0.90989263      -0.90692880      -0.91072765
C        0.90977584       0.90977584      -0.90977584
C       -0.00465871       1.77757030       0.00794375
H       -0.66225468       2.44313916      -0.64384735
H        0.64322798       2.43503045       0.67728295
C       -1.78241447       0.00034974      -0.00472694
H       -2.45427497      -0.65498947       0.64260836
H       -2.43311707       0.67328779      -0.65473579
C       -0.91132561       0.90220522       0.91563759
C       -0.01476271      -0.02253852       1.78660255
H       -0.67934791      -0.69751639       2.42135241
H        0.63392994       0.61504881       2.47327442
C        0.01484550      -1.77751727      -0.01636693
H        0.67870853      -2.42144646      -0.68295456
H       -0.62264859      -2.45592969       0.64226336
C        1.78714474       0.01002794       0.00389507
H        2.44202412       0.67113390       0.66197326
H        2.45385902      -0.65136977      -0.64189061
C        0.91606151      -0.90478549       0.90901405
