165
Properties=species:S:1:pos:R:3 pbc="F F F"
C        0.00000000       0.00000000       0.00000000
C        0.88191909       0.88191909      -0.88191909
C        1.23472337       0.45157301      -2.15433105
C        2.04193291       1.26128554      -2.95503059
C        2.51373218       2.51364927      -2.49981043
C        2.14213076       2.93979282      -1.20149080
C        1.32686398       2.11311472      -0.40590202
C        2.59112866       4.25888063      -0.63132645
C        3.39969872       3.35855223      -3.41186792
H        3.66985828       4.28832487      -2.90319921
C        2.74188293       3.71782576      -4.64610559
C        2.19970083       4.01395107      -5.66336679
C        1.57650655       4.35431977      -6.83265050
C        1.03433001       4.65043565      -7.84992066
C        0.37651422       5.00970918      -9.08415832
H       -0.30996123       4.19448121      -9.33012695
C       -0.39347961       6.32461071      -8.98873730
C        0.29741668       7.51198370      -8.65736606
C       -0.36028582       8.74092972      -8.58749893
C       -1.72332627       8.80397726      -8.84525273
C       -2.43366589       7.64961536      -9.16779843
C       -1.78441010       6.40318067      -9.24342805
C       -2.60726094       5.19036438      -9.59068119
Br      -2.62038209      10.46539037      -8.75725293
N        1.34964658       5.05498054     -10.17685442
N        4.66485142       2.67670939      -3.69123850
H        0.89128257      -0.50683525      -2.53309949
H        2.30450220       0.90682510      -3.94974555
H        1.04027440       2.43444482       0.59335512
H        2.20181359       4.41560000       0.38066060
H        2.22580755       5.08455705      -1.25082254
H        3.68351896       4.29543070      -0.56939365
H        1.36491308       7.48327803      -8.44567349
H        0.19942156       9.63662298      -8.33136196
H       -3.50224527       7.71696085      -9.36202138
H       -2.56684183       4.45940093      -8.77682643
H       -2.24346088       4.73608524     -10.51723208
H       -3.66052370       5.44750076      -9.74465312
H        2.03917993       5.77464191      -9.97473649
H        0.86596965       5.35865437     -11.02000699
H        5.22493911       3.27168927      -4.29841731
H        4.47274720       1.83320695      -4.22600395
C       -0.88191909      -0.88191909      -0.88191909
C       -0.38090393      -2.07603449      -1.38368901
C       -1.19113999      -2.87701155      -2.19009750
C       -2.51481038      -2.49990930      -2.51247220
C       -3.01210415      -1.28126871      -1.99004152
C       -2.18387299      -0.48449107      -1.17751666
C       -4.40949501      -0.79807347      -2.27376726
C       -3.35785237      -3.40803055      -3.40423596
H       -4.34750349      -2.96534033      -3.54853854
C       -3.55163608      -4.72036121      -2.83381699
C       -3.71136344      -5.80198860      -2.36366665
C       -3.89495174      -7.04525553      -1.82326954
C       -4.05466951      -8.12689049      -1.35312632
C       -4.24845322      -9.43922115      -0.78270735
H       -3.35648401      -9.66634568      -0.19181725
C       -5.49118781      -9.52837045       0.09968986
C       -6.75997857      -9.24999303      -0.45679484
C       -7.92550318      -9.34731866       0.30467901
C       -7.84254580      -9.72245807       1.63910015
C       -6.60548011      -9.99670217       2.21843438
C       -5.42135152      -9.90420759       1.46336049
C       -4.11398014     -10.20702944       2.14722496
Br      -9.41696194      -9.86109609       2.67579681
N       -4.29085066     -10.44656740      -1.84406347
N       -2.77306373      -3.51775863      -4.74197694
H        0.63300450      -2.39331999      -1.15723131
H       -0.78036686      -3.80997997      -2.57072602
H       -2.55996177       0.45399743      -0.77539976
H       -4.61394438       0.15946446      -1.78227307
H       -5.14397645      -1.51842316      -1.89878753
H       -4.55033637      -0.64888216      -3.34912479
H       -6.84628112      -8.94832346      -1.49926002
H       -8.88663424      -9.12799286      -0.15277938
H       -6.55887968     -10.28464218       3.26678490
H       -3.46012251      -9.32950843       2.12024541
H       -3.61904531     -11.05483301       1.66402189
H       -4.26046886     -10.47102046       3.19985913
H       -5.08460680     -10.25400687      -2.44994466
H       -4.47790595     -11.35122717      -1.41549789
H       -3.36385154      -4.12775268      -5.30344146
H       -1.87395112      -3.98769031      -4.67031668
C       -0.88191909       0.88191909       0.88191909
C       -1.42040889       0.36651222       2.05370632
C       -2.22661603       1.17686308       2.85476993
C       -2.51214636       2.51507899       2.49996653
C       -1.95254734       3.02683946       1.30402758
C       -1.14070519       2.19827762       0.50689792
C       -2.19553642       4.44017088       0.84562845
C       -3.40531505       3.35779276       3.40701107
H       -3.51858935       4.35964792       2.98314509
C       -2.85979801       3.51079464       4.73522163
C       -2.41017171       3.63690927       5.82993769
C       -1.89336597       3.78186203       7.08824882
C       -1.44374716       3.90796707       8.18297209
C       -0.89823012       4.06096895       9.51118265
H       -0.33175191       3.15157927       9.73131575
C        0.00847610       5.28184340       9.64650110
C       -0.51439823       6.56822253       9.38414568
C        0.26960457       7.71440100       9.52334640
C        1.59338493       7.59415043       9.92513821
C        2.13986983       6.33906883      10.18454890
C        1.36175856       5.17405101      10.04990617
C        2.01058799       3.84578982      10.33858280
Br       2.66035310       9.14210217      10.12051215
N       -1.98027776       4.10500616      10.49619761
N       -4.75738822       2.80027498       3.47513611
H       -1.22278750      -0.65869899       2.35345830
H       -2.63635430       0.75460447       3.77011408
H       -0.71011220       2.58551527      -0.41426337
H       -1.67887531       4.65429799      -0.09642031
H       -1.82076949       5.15061329       1.58980436
H       -3.26408999       4.60774309       0.67651023
H       -1.54790039       6.68383359       9.06213063
H       -0.16219106       8.68982490       9.31539053
H        3.18040817       6.26330682      10.49383831
H        1.98883665       3.21167222       9.44654996
H        1.49838519       3.34348818      11.16475344
H        3.06007895       3.96344615      10.62826299
H       -2.56460694       4.91581590      10.30813549
H       -1.56774710       4.26314766      11.41373625
H       -5.31928795       3.39000707       4.08575066
H       -4.71537587       1.88992463       3.92665760
C        0.88191909      -0.88191909       0.88191909
C        0.50154417      -2.19075042       1.14833284
C        1.31091082      -2.99134280       1.95599542
C        2.51292369      -2.49985059       2.51441760
C        2.88868758      -1.16440693       2.23031988
C        2.06306493      -0.36933255       1.41348324
C        4.15238888      -0.55377365       2.77517321
C        3.35929322      -3.41387499       3.39695066
H        4.24675405      -2.87454295       3.74008536
C        3.81457360      -4.59282160       2.69841908
C        4.18982836      -5.56451077       2.12267955
C        4.62115124      -6.68141323       1.46091235
C        4.99639680      -7.65311209       0.88517743
C        5.45167718      -8.83205869       0.18664585
H        4.68539491      -9.08199158      -0.55273955
C        6.79634785      -8.63159550      -0.50807495
C        7.92913998      -8.27827387       0.25935259
C        9.18384655      -8.11341124      -0.32911496
C        9.32769987      -8.29631280      -1.69810895
C        8.22833654      -8.63818255      -2.48277119
C        6.95690551      -8.80921886      -1.90392574
C        5.80610159      -9.17276247      -2.80507944
Br      11.02466691      -8.07945956      -2.50186525
N        5.50558476      -9.97041563       1.10548114
N        2.63109945      -3.79226149       4.60943837
H       -0.41761969      -2.59811686       0.73704963
H        0.99621815      -4.01473222       2.15012248
H        2.34566632       0.65819813       1.19389590
H        4.27523167       0.48365393       2.44517525
H        5.02632371      -1.11171191       2.42315151
H        4.13149347      -0.54714132       3.86970852
H        7.83658357      -8.12420485       1.33307619
H       10.03613628      -7.84274077       0.28852944
H        8.35857560      -8.77285635      -3.55469498
H        5.03259885      -8.39933782      -2.76255114
H        5.38327960     -10.13838740      -2.51181057
H        6.12278273      -9.25868490      -3.84983744
H        6.17868254      -9.76911411       1.84076168
H        5.87639286     -10.77112319       0.59711495
H        3.22844403      -4.39758962       5.16901203
H        1.82717873      -4.35741782       4.34736155
