122
Properties=species:S:1:pos:R:3 pbc="F F F"
C        1.81745914       1.81745914      -1.81745914
H        1.27087114       1.99414489      -2.74886687
C        2.17855015       3.11163815      -1.11591588
C        3.54738050       3.40152118      -1.68435228
C        4.13283478       1.99954850      -1.77451090
H        4.46414231       1.70362938      -0.76984105
O        3.03933127       1.13797021      -2.13345978
C        5.30838578       1.83039145      -2.73741886
H        5.76028168       0.84516610      -2.55897719
C        4.97191451       1.93449865      -4.21767603
C        6.32865413       2.24440587      -4.80454632
C        6.92453294       3.15564776      -3.75043483
H        6.72107981       4.21105473      -3.95568327
O        6.32579387       2.81608101      -2.49260253
H        2.25722461       2.98350297      -0.02939208
H        1.45528601       3.91047508      -1.30406420
H        3.44105702       3.86299552      -2.67167601
H        4.14085785       4.07127521      -1.05553566
H        4.28923590       2.76559850      -4.42307368
H        4.52913763       1.01981293      -4.61947262
H        6.89789628       1.31285874      -4.91422325
H        6.27532944       2.71777445      -5.79050273
C        8.35428204       3.00272708      -3.67276390
C        9.55169692       2.87465601      -3.60771449
Br      11.48781549       2.66757593      -3.50253511
C       -1.81745914      -1.81745914      -1.81745914
H       -2.85800775      -1.57528452      -1.58059062
C       -1.50643669      -1.61289924      -3.28676825
C       -1.79395311      -2.98089563      -3.85840522
C       -1.28432064      -3.88079833      -2.74177521
H       -0.18956576      -3.93060712      -2.81743986
O       -1.59597521      -3.20072593      -1.51406012
C       -1.83110530      -5.30863733      -2.73645347
H       -1.24184115      -5.90006451      -2.02251931
C       -3.30077633      -5.45337197      -2.36994089
C       -3.61452470      -6.81146516      -2.95161646
C       -2.80095806      -6.79954517      -4.23011230
H       -3.37813414      -6.42757005      -5.08211363
O       -1.68220243      -5.92623066      -4.02604433
H       -0.45115577      -1.36486029      -3.45410359
H       -2.10919696      -0.82054038      -3.74008794
H       -2.87256065      -3.09204140      -4.01112650
H       -1.29254747      -3.16167242      -4.81344884
H       -3.92006233      -4.69605307      -2.86179268
H       -3.47923674      -5.39580474      -1.29338169
H       -3.27846860      -7.59055016      -2.25595952
H       -4.68307046      -6.96787272      -3.13266344
C       -2.33924964      -8.12048172      -4.57004166
C       -1.95256885      -9.22676609      -4.85473249
Br      -1.32733870     -11.01553433      -5.31505349
C       -1.81745914       1.81745914       1.81745914
H       -2.55153332       1.16383813       2.29851145
C       -0.99093849       2.58577939       2.82938630
C       -1.79245166       3.85636350       2.98443879
C       -2.26920840       4.08105310       1.55663268
H       -1.43803506       4.51514329       0.98443438
O       -2.52217219       2.77352866       1.01506042
C       -3.48834594       4.99001559       1.39783456
H       -3.60133560       5.23102578       0.33206359
C       -4.80840088       4.42005087       1.89563744
C       -5.62111793       5.68023799       2.07625039
C       -4.58110655       6.65080795       2.59870103
H       -4.53733384       6.65842577       3.69205820
O       -3.30444516       6.23201531       2.09801694
H        0.00674996       2.83143059       2.44543903
H       -0.85978168       2.04109812       3.76894548
H       -2.62776933       3.67825243       3.66970679
H       -1.20297504       4.69164575       3.37304794
H       -4.69704032       3.91834906       2.86251869
H       -5.25999911       3.71491210       1.19351197
H       -6.02646503       5.99276184       1.10575141
H       -6.46498976       5.55576709       2.76284977
C       -4.85987702       7.99766117       2.17223483
C       -5.09334729       9.12565075       1.81506939
Br      -5.47084896      10.94951449       1.23756308
C        1.81745914      -1.81745914       1.81745914
H        2.17530658      -2.64340955       1.19516677
C        2.95936400      -1.02487286       2.42186732
C        3.16155747      -1.72933930       3.74235718
C        1.72532453      -2.05522699       4.12634266
H        1.26524889      -1.14283255       4.52953131
O        1.04903484      -2.36552866       2.89619776
C        1.54890758      -3.17577463       5.15151388
H        0.50352703      -3.17191564       5.48898231
C        1.88249298      -4.57790309       4.66369312
C        2.10819177      -5.29665292       5.97276163
C        2.80017203      -4.23133598       6.79910752
H        3.88962568      -4.28583129       6.71236085
O        2.37100172      -2.95373194       6.30974375
H        2.68289963       0.02024170       2.60746172
H        3.85360494      -1.02441982       1.79180052
H        3.75658867      -2.63488497       3.58425491
H        3.67126977      -1.11028970       4.48610924
H        2.80608953      -4.59600879       4.07580976
H        1.08474575      -5.02108927       4.06258816
H        1.13965309      -5.58563535       6.39968984
H        2.70867320      -6.20637543       5.86855800
C        2.47529052      -4.35825527       8.19622724
C        2.20320226      -4.46455017       9.36631500
Br       1.76325855      -4.63642004      11.25824795
C       -0.00445707       0.01189536      -1.78238275
H       -0.66409135       0.67374010      -2.43557963
H        0.65740317      -0.63156657      -2.45157240
C       -0.90989263      -0.90692880      -0.91072765
C        0.90977584       0.90977584      -0.90977584
C       -0.00465871       1.77757030       0.00794375
H       -0.66225468       2.44313916      -0.64384735
H        0.64322798       2.43503045       0.67728295
C       -1.78241447       0.00034974      -0.00472694
H       -2.45427497      -0.65498947       0.64260836
H       -2.43311707       0.67328779      -0.65473579
C       -0.91132561       0.90220522       0.91563759
C       -0.01476271      -0.02253852       1.78660255
H       -0.67934791      -0.69751639       2.42135241
H        0.63392994       0.61504881       2.47327442
C        0.01484550      -1.77751727      -0.01636693
H        0.67870853      -2.42144646      -0.68295456
H       -0.62264859      -2.45592969       0.64226336
C        1.78714474       0.01002794       0.00389507
H        2.44202412       0.67113390       0.66197326
H        2.45385902      -0.65136977      -0.64189061
C        0.91606151      -0.90478549       0.90901405
