154
Properties=species:S:1:pos:R:3 pbc="F F F"
Cl       0.43334401       7.45057144      -6.79910033
C        0.81351911       5.77528359      -6.69983599
C        1.87387037       5.26273439      -7.44117129
C        2.17732137       3.90536272      -7.36085310
C        1.42201661       3.06661166      -6.53686376
C        0.35054528       3.57169297      -5.78011491
C        0.05409185       4.94203180      -5.87556509
C       -0.48714615       2.68935635      -4.88317801
H       -1.23910762       3.28107048      -4.34878105
C        0.29345216       1.83050625      -3.87987385
C        0.97845212       2.67582372      -2.79057770
C        1.83387016       1.83387016      -1.83387016
H        2.43935795       1.12184472      -2.40718747
C        2.72330287       2.65915057      -0.92935076
C        4.11335325       2.45270805      -0.94464505
C        4.95764100       3.18991756      -0.11121249
C        4.42652624       4.14474912       0.75386895
C        3.05164706       4.36249151       0.77619131
C        2.20374237       3.63400761      -0.05947971
Cl       2.39096445       5.53572694       1.84859585
Br      -1.55524067       1.50235348      -6.03305162
H        2.46140466       5.91108466      -8.08532999
H        2.99754400       3.49680770      -7.94561028
H        1.67044590       2.00697504      -6.50748574
H       -0.77319361       5.36505800      -5.31115962
H        1.04293473       1.21279000      -4.39025174
H       -0.40207312       1.13006625      -3.40148032
H        0.21510010       3.24127838      -2.24189395
H        1.62736481       3.41663411      -3.27456327
H        4.55337200       1.70699021      -1.60529525
H        6.03093958       3.01514281      -0.13240550
H        5.08554041       4.71008092       1.40686043
H        1.13210310       3.81634851      -0.01553183
Cl      -5.47284675      -8.44962017      -0.76054886
C       -4.06067012      -7.76333122      -1.46463734
C       -3.73853523      -8.05187962      -2.78736120
C       -2.59293222      -7.49697247      -3.35363250
C       -1.77609831      -6.65283133      -2.59656240
C       -2.09147235      -6.35029709      -1.26058372
C       -3.24773938      -6.92153706      -0.70241231
C       -1.22599737      -5.44426063      -0.41513020
H       -1.66759268      -5.30077310       0.57762187
C       -0.89692483      -4.07752105      -1.02938637
C       -2.13527326      -3.16945561      -1.14012466
C       -1.83387016      -1.83387016      -1.83387016
H       -1.22768791      -2.01034565      -2.73035658
C       -3.07345016      -1.04402974      -2.19432429
C       -3.30017837      -0.67831693      -3.53221104
C       -4.42836458       0.06213422      -3.89254068
C       -5.34833832       0.45196037      -2.92102845
C       -5.13826681       0.09278910      -1.59246956
C       -4.01654685      -0.65320293      -1.22747993
Cl      -6.26837852       0.57867912      -0.38839614
Br       0.45840880      -6.39228206      -0.04629118
H       -4.36941319      -8.71023409      -3.37817203
H       -2.32999227      -7.72697613      -4.38299357
H       -0.87766982      -6.24783857      -3.05939829
H       -3.51728270      -6.71636101       0.33061970
H       -0.43600300      -4.19147164      -2.01850184
H       -0.14728784      -3.58140505      -0.40078056
H       -2.55238185      -3.00739208      -0.13849850
H       -2.90686095      -3.69361925      -1.71808199
H       -2.59274505      -0.96315775      -4.30975467
H       -4.58706102       0.34048842      -4.93191529
H       -6.22016405       1.03525257      -3.20384942
H       -3.87054796      -0.91241745      -0.18101803
Cl      -5.55129945       0.73078841       8.40092791
C       -5.77839231       0.81303226       6.69721412
C       -6.76811307       1.63811347       6.17154950
C       -6.95139058       1.70028388       4.79186273
C       -6.14204140       0.94037450       3.94307613
C       -5.13647261       0.10548562       4.46039492
C       -4.96718875       0.05015203       5.85434795
C       -4.24800423      -0.73124552       3.56862950
H       -3.50297310      -1.27385972       4.16163053
C       -3.54460951       0.02500697       2.43421577
C       -2.48105571       1.00895468       2.95484315
C       -1.83387016       1.83387016       1.83387016
H       -2.60860106       2.20651749       1.15327158
C       -0.98980928       2.98473790       2.33725702
C       -1.28691375       4.29592794       1.92786466
C       -0.51718774       5.37621640       2.36536691
C        0.56459339       5.16405493       3.21794487
C        0.86750944       3.87071591       3.63474079
C        0.09758878       2.78814654       3.20667194
Cl       2.20737212       3.60360882       4.68185884
Br      -5.35329589      -2.15833558       2.78520413
H       -7.40141640       2.22800427       6.82839865
H       -7.72980215       2.33461603       4.37554379
H       -6.31958073       0.99505004       2.87027591
H       -4.20507704      -0.59152935       6.28947631
H       -4.26981014       0.56417575       1.81199060
H       -3.06082797      -0.70444912       1.77309460
H       -1.72408245       0.45270769       3.52148229
H       -2.95571661       1.69954896       3.66329662
H       -2.12177928       4.48841201       1.25546618
H       -0.75804920       6.38442232       2.03601637
H        1.16625174       6.00583107       3.54918157
H        0.36141412       1.78638122       3.53901633
Cl       8.29183876      -0.67087018       5.72030683
C        7.67425463      -1.34968083       4.26470322
C        8.01615504      -2.65128019       3.91034082
C        7.51682043      -3.19699220       2.72972456
C        6.67466945      -2.44072749       1.91009511
C        6.31857759      -1.12610970       2.25766587
C        6.83415493      -0.58832011       3.44921370
C        5.41324066      -0.28192428       1.39022327
H        5.22328406       0.69073666       1.85819651
C        4.07854775      -0.92817157       0.99711294
C        3.13571168      -1.10829840       2.20084346
C        1.83387016      -1.83387016       1.83387016
H        2.05885093      -2.70391536       1.20562384
C        1.01729303      -2.25973542       3.03477575
C        0.68867072      -3.61528916       3.20674647
C       -0.07503281      -4.03580420       4.29799966
C       -0.52557607      -3.10789129       5.23509118
C       -0.20371163      -1.76241028       5.07924861
C        0.56516854      -1.33727628       3.99478489
Cl      -0.76452987      -0.61212927       6.23049615
Br       6.40169458       0.17194462      -0.24958552
H        8.67316568      -3.24125968       4.54339395
H        7.78872693      -4.20933856       2.44189648
H        6.31384262      -2.88646103       0.98460304
H        6.58671978       0.42826562       3.74456984
H        4.23949305      -1.89750400       0.50897943
H        3.58613966      -0.29138271       0.25195109
H        2.92768538      -0.12655922       2.64402783
H        3.65377810      -1.69432082       2.97046327
H        1.02121724      -4.35974861       2.48469161
H       -0.32402389      -5.08814829       4.41436350
H       -1.12668194      -3.43756963       6.07787320
H        0.79440379      -0.27887731       3.89070234
C       -0.00445707       0.01189536      -1.78238275
H       -0.66409135       0.67374010      -2.43557963
H        0.65740317      -0.63156657      -2.45157240
C       -0.90989263      -0.90692880      -0.91072765
C        0.90977584       0.90977584      -0.90977584
C       -0.00465871       1.77757030       0.00794375
H       -0.66225468       2.44313916      -0.64384735
H        0.64322798       2.43503045       0.67728295
C       -1.78241447       0.00034974      -0.00472694
H       -2.45427497      -0.65498947       0.64260836
H       -2.43311707       0.67328779      -0.65473579
C       -0.91132561       0.90220522       0.91563759
C       -0.01476271      -0.02253852       1.78660255
H       -0.67934791      -0.69751639       2.42135241
H        0.63392994       0.61504881       2.47327442
C        0.01484550      -1.77751727      -0.01636693
H        0.67870853      -2.42144646      -0.68295456
H       -0.62264859      -2.45592969       0.64226336
C        1.78714474       0.01002794       0.00389507
H        2.44202412       0.67113390       0.66197326
H        2.45385902      -0.65136977      -0.64189061
C        0.91606151      -0.90478549       0.90901405
