162
Properties=species:S:1:pos:R:3 pbc="F F F"
C        1.82534255       1.82534255      -1.82534255
C        3.33588246       1.55789946      -1.67821602
H        3.79546409       2.19929731      -2.44195855
C        3.79768917       0.08978625      -1.99567425
H        3.44467617      -0.53255843      -1.16255927
C        5.31851208      -0.11675471      -2.03437174
C        5.85941914      -1.30923662      -1.51920534
C        7.23022444      -1.57110809      -1.59331888
C        8.08604494      -0.64602404      -2.18606932
C        7.56684644       0.53943802      -2.69620920
C        6.19761924       0.80692557      -2.62327232
Cl       8.61833706       1.68009769      -3.44181060
C        3.15850059      -0.54759753      -3.24484675
C        3.83357690       2.10896353      -0.33514598
C        3.81842386       1.35460569       0.84908403
C        4.22839628       1.91280172       2.06364086
C        4.66224354       3.23487579       2.11612995
C        4.68608980       3.99421116       0.95099218
C        4.27575824       3.44273440      -0.26457679
Cl       5.21227251       5.63213372       1.01069308
H        1.57095764       2.85738206      -1.55905735
H        1.47942114       1.65709639      -2.84860544
H        5.21258024      -2.05552994      -1.06129273
H        7.62890882      -2.50109500      -1.19558108
H        9.15023070      -0.85543520      -2.25108476
H        5.83167382       1.73503763      -3.05231522
H        3.53872620      -1.55941053      -3.42018725
H        2.07189084      -0.61725372      -3.15812879
H        3.47149016       0.32429138       0.85762745
H        4.20051401       1.31453868       2.97134234
H        4.97426186       3.66504722       3.06361469
H        4.29589512       4.06222034      -1.15825145
C        3.40595346       0.17549762      -4.46529769
C        3.61319523       0.78108980      -5.48742535
Br       3.94828766       1.76028115      -7.14011933
C       -1.82534255      -1.82534255      -1.82534255
C       -1.33726440      -1.95325917      -3.28147438
H       -2.02224940      -2.68598244      -3.72848811
C        0.11191732      -2.53370125      -3.46136575
H        0.80344143      -1.74717104      -3.13094741
C        0.51277069      -2.83685341      -4.91204638
C        1.83290836      -2.57779778      -5.32449843
C        2.26217183      -2.89963077      -6.61497628
C        1.37965403      -3.48870722      -7.51703702
C        0.07009351      -3.74717939      -7.12540778
C       -0.36463658      -3.42598793      -5.83719262
Cl      -1.02088604      -4.48734645      -8.23201286
C        0.45447598      -3.74205253      -2.56817327
C       -1.59974984      -0.64255780      -4.03537876
C       -0.67872737       0.41700948      -4.06222762
C       -0.98007122       1.61661720      -4.71410313
C       -2.20711808       1.77826377      -5.35213507
C       -3.12885928       0.73669132      -5.33714080
C       -2.83429673      -0.46294591      -4.68582679
Cl      -4.65140756       0.93350871      -6.11581431
H       -2.82788043      -1.38608383      -1.77343279
H       -1.86707387      -2.79525797      -1.32279114
H        2.54756407      -2.12921789      -4.63668921
H        3.28796725      -2.69792513      -6.91343702
H        1.71771590      -3.74669530      -8.51690086
H       -1.38907707      -3.66369055      -5.56625904
H        1.46836847      -4.10924690      -2.75862448
H        0.38985390      -3.49690588      -1.50571392
H        0.28406308       0.34080075      -3.56301791
H       -0.25668278       2.42860545      -4.71563301
H       -2.43808163       2.71459403      -5.85220680
H       -3.57730474      -1.25714146      -4.68192071
C       -0.41033004      -4.87754539      -2.75887334
C       -1.13460509      -5.82852065      -2.91858465
Br      -2.30569658      -7.36616723      -3.17682432
C       -1.82534255       1.82534255       1.82534255
C       -3.31312501       1.83516424       1.42370870
H       -3.79732080       2.42915366       2.21024550
C       -4.02416089       0.43379800       1.42519078
H       -3.62979710      -0.11413871       0.55901862
C       -5.54411830       0.47846442       1.21354639
C       -6.15553270      -0.52296026       0.43681542
C       -7.54276542      -0.56213940       0.27180920
C       -8.34524038       0.39851190       0.88233794
C       -7.75517498       1.39738977       1.64992891
C       -6.36888246       1.44214489       1.81678978
Cl      -8.74341560       2.57919872       2.41763104
C       -3.69727863      -0.47086945       2.62934063
C       -3.49858304       2.64545191       0.13365145
C       -3.39453631       2.07428273      -1.14487353
C       -3.51463990       2.85882429      -2.29590704
C       -3.74228709       4.22840676      -2.18970447
C       -3.85095383       4.80857484      -0.93021990
C       -3.72971635       4.03038861       0.22296447
Cl      -4.12282790       6.50272932      -0.79184406
H       -1.38693346       2.82819151       1.77227208
H       -1.68090413       1.45906552       2.84515333
H       -5.55403967      -1.29360343      -0.04209320
H       -7.99765912      -1.34752824      -0.32673598
H       -9.42428245       0.36106988       0.76052794
H       -5.95138892       2.22669255       2.44094520
H       -4.24059257      -1.42027771       2.57918806
H       -2.63225208      -0.70643733       2.68695115
H       -3.20032485       1.01248091      -1.27465168
H       -3.42184999       2.39876237      -3.27690202
H       -3.82911133       4.83398701      -3.08740395
H       -3.80962158       4.51186712       1.19487822
C       -4.03846948       0.10311168       3.90516761
C       -4.32421682       0.58382087       4.97367270
Br      -4.78624609       1.36108697       6.70135507
C        1.82534255      -1.82534255       1.82534255
C        1.29031335      -3.25670224       2.02498236
H        2.08520080      -3.76170230       2.58981686
C        1.08197687      -4.09128393       0.70988887
H        0.20459504      -3.66280400       0.20727797
C        0.73569212      -5.57075586       0.92968112
C       -0.19309155      -6.18969270       0.07278670
C       -0.48945130      -7.55029274       0.19159379
C        0.13914727      -8.31838152       1.16856143
C        1.05663362      -7.71988751       2.02597252
C        1.35531467      -6.35989064       1.91261183
Cl       1.84631054      -8.66752037       3.22641444
C        2.21213447      -3.97512072      -0.33150538
C        0.07853892      -3.23276290       2.96638458
C       -1.23659074      -3.05167434       2.50886191
C       -2.30724616      -2.97966051       3.40514280
C       -2.08275824      -3.08872589       4.77502174
C       -0.78599219      -3.27160089       5.24370006
C        0.28755058      -3.34212171       4.35339715
Cl      -0.50046288      -3.39760288       6.93657315
H        1.91637857      -1.29250944       2.77850904
H        2.81119680      -1.82092590       1.35300027
H       -0.69052792      -5.61649197      -0.70762101
H       -1.20506112      -8.01241249      -0.48395647
H       -0.08561193      -9.37802571       1.25346648
H        2.09272617      -5.93751586       2.58878464
H        2.01460030      -4.59629599      -1.21139338
H        2.34400969      -2.94814524      -0.67938902
H       -1.45596882      -2.94470121       1.44942169
H       -3.31736030      -2.82990920       3.03116145
H       -2.91777912      -3.02636673       5.46710678
H        1.29206481      -3.47619061       4.74811150
C        3.50284134      -4.39053307       0.15337435
C        4.58380835      -4.73844092       0.55946112
Br       6.33164057      -5.30097847       1.21606908
C       -0.00445707       0.01189536      -1.78238275
H       -0.66409135       0.67374010      -2.43557963
H        0.65740317      -0.63156657      -2.45157240
C       -0.90989263      -0.90692880      -0.91072765
C        0.90977584       0.90977584      -0.90977584
C       -0.00465871       1.77757030       0.00794375
H       -0.66225468       2.44313916      -0.64384735
H        0.64322798       2.43503045       0.67728295
C       -1.78241447       0.00034974      -0.00472694
H       -2.45427497      -0.65498947       0.64260836
H       -2.43311707       0.67328779      -0.65473579
C       -0.91132561       0.90220522       0.91563759
C       -0.01476271      -0.02253852       1.78660255
H       -0.67934791      -0.69751639       2.42135241
H        0.63392994       0.61504881       2.47327442
C        0.01484550      -1.77751727      -0.01636693
H        0.67870853      -2.42144646      -0.68295456
H       -0.62264859      -2.45592969       0.64226336
C        1.78714474       0.01002794       0.00389507
H        2.44202412       0.67113390       0.66197326
H        2.45385902      -0.65136977      -0.64189061
C        0.91606151      -0.90478549       0.90901405
