66
Properties=species:S:1:pos:R:3 pbc="F F F"
C        1.77468278       1.77468278      -1.77468278
N        1.58917101       3.11460617      -1.97539243
H        0.84857244       3.66463223      -1.56165297
C        2.56385131       3.58252687      -2.82116990
C        3.36205822       2.51320541      -3.14640726
C        2.87373633       1.36463872      -2.49141552
H        2.59911189       4.62394546      -3.11081081
H        3.27368846       0.36037670      -2.53579765
C        4.51457134       2.52609312      -4.00962647
C        5.47980108       2.53688658      -4.73257256
Br       7.04049594       2.55433869      -5.90151524
C       -1.77468278      -1.77468278      -1.77468278
N       -1.52486720      -3.08694268      -2.06735973
H       -0.72986855      -3.61355838      -1.73143071
C       -2.52087309      -3.56408782      -2.88258717
C       -3.39779632      -2.52864139      -3.09523318
C       -2.93733700      -1.39201953      -2.40043404
H       -2.51369725      -4.58728105      -3.23288986
H       -3.39648049      -0.41322499      -2.36015734
C       -4.59830350      -2.56223951      -3.88974793
C       -5.60372825      -2.59037793      -4.55515404
Br      -7.22941505      -2.63587538      -5.63105944
C       -1.77468278       1.77468278       1.77468278
N       -2.98733694       1.40465955       2.28717312
H       -3.42973217       0.50802070       2.13710477
C       -3.49721572       2.44016951       3.03016285
C       -2.58363250       3.46416150       2.97387689
C       -1.49041794       3.05608762       2.18328501
H       -4.45449186       2.35344265       3.52593365
H       -0.60328984       3.62585734       1.94071564
C       -2.69119455       4.75393091       3.60516549
C       -2.78127776       5.83411278       4.13386969
Br      -2.92693469       7.58067551       4.98873967
C        1.77468278      -1.77468278       1.77468278
N        3.05215407      -1.47061857       2.15639698
H        3.54938089      -0.62979151       1.89568524
C        3.54055541      -2.48417713       2.94281554
C        2.54763164      -3.42740932       3.04662993
C        1.42631682      -2.99081949       2.31265426
H        4.54061800      -2.44093187       3.35231829
H        0.47952611      -3.49986906       2.19046765
C        2.60683975      -4.66785218       3.77559901
C        2.65642654      -5.70672307       4.38611062
Br       2.73660418      -7.38648944       5.37325625
C       -0.00445707       0.01189536      -1.78238275
H       -0.66409135       0.67374010      -2.43557963
H        0.65740317      -0.63156657      -2.45157240
C       -0.90989263      -0.90692880      -0.91072765
C        0.90977584       0.90977584      -0.90977584
C       -0.00465871       1.77757030       0.00794375
H       -0.66225468       2.44313916      -0.64384735
H        0.64322798       2.43503045       0.67728295
C       -1.78241447       0.00034974      -0.00472694
H       -2.45427497      -0.65498947       0.64260836
H       -2.43311707       0.67328779      -0.65473579
C       -0.91132561       0.90220522       0.91563759
C       -0.01476271      -0.02253852       1.78660255
H       -0.67934791      -0.69751639       2.42135241
H        0.63392994       0.61504881       2.47327442
C        0.01484550      -1.77751727      -0.01636693
H        0.67870853      -2.42144646      -0.68295456
H       -0.62264859      -2.45592969       0.64226336
C        1.78714474       0.01002794       0.00389507
H        2.44202412       0.67113390       0.66197326
H        2.45385902      -0.65136977      -0.64189061
C        0.91606151      -0.90478549       0.90901405
