69
Properties=species:S:1:pos:R:3 pbc="F F F"
C        0.00000000       0.00000000       0.00000000
C        0.87099084       0.87099084      -0.87099084
C        0.71332733       2.26214586      -1.01509810
C        1.68970906       2.69658801      -1.89490677
N        2.43073903       1.59190145      -2.25416624
H        3.24325742       1.60428494      -2.85408529
C        1.93254835       0.47070052      -1.63926882
C        1.95468199       4.02188289      -2.36192116
N        2.58598575       4.30606766      -3.55320470
H        2.89998658       3.62054554      -4.22534573
C        2.68710026       5.66454805      -3.72029851
C        2.10153948       6.24908188      -2.62768682
C        1.63163000       5.23298595      -1.77437363
Br       1.92497737       8.08120346      -2.28879690
H       -0.03266710       2.88633745      -0.54081496
H        2.38286714      -0.49964112      -1.79737766
H        3.15467042       6.08589551      -4.59917737
H        1.12064907       5.36032683      -0.82895508
C       -0.87099084      -0.87099084      -0.87099084
C       -0.64523083      -1.10496006      -2.24038041
C       -1.65380998      -1.94228016      -2.68511371
N       -2.45542950      -2.22158405      -1.59979318
H       -3.25049986      -2.84452797      -1.60659982
C       -1.98897443      -1.56480748      -0.48873579
C       -1.86794004      -2.47638813      -3.99415786
N       -3.09702126      -2.87882868      -4.46940817
H       -3.96812734      -2.81579885      -3.96195166
C       -2.97671068      -3.33812090      -5.75711522
C       -1.65748823      -3.21366862      -6.10715133
C       -0.95451017      -2.66791892      -5.01656049
Br      -0.87869787      -3.66949506      -7.74678478
H        0.15660203      -0.70436277      -2.84672456
H       -2.48745283      -1.65936360       0.46621276
H       -3.83642652      -3.69951394      -6.30380285
H        0.10319094      -2.44396681      -4.96915510
C       -0.87099084       0.87099084       0.87099084
C       -2.24931817       0.66919359       1.07205953
C       -2.69070891       1.66948201       1.92101291
N       -1.59526590       2.44231444       2.23922637
H       -1.59880818       3.22441459       2.87840488
C       -0.48050164       1.96626915       1.59574691
C       -4.00598046       1.89996958       2.43253600
N       -4.46425202       3.13021990       2.85078619
H       -3.93783500       3.99162268       2.81642016
C       -5.76348624       3.02749764       3.28096293
C       -6.13781338       1.71871958       3.12177522
C       -5.05067988       1.00440499       2.58390471
Br      -7.80225027       0.96523743       3.52749002
H       -2.86345602      -0.11139079       0.64242008
H        0.48227742       2.44260705       1.72027405
H       -6.29987789       3.89087793       3.64898749
H       -5.02029191      -0.04924290       2.33888196
C        0.87099084      -0.87099084       0.87099084
C        1.36932613      -0.49024256       2.13100261
C        2.12475955      -1.54682891       2.60961538
N        2.06294178      -2.54843572       1.66542922
H        2.48256074      -3.46270817       1.75635875
C        1.30533395      -2.14109438       0.59608937
C        2.83449514      -1.65799485       3.84599605
N        3.91653088      -2.48865398       4.04007325
H        4.33376883      -3.07819641       3.33391260
C        4.37971118      -2.36606396       5.32617167
C        3.58967932      -1.43704675       5.95158211
C        2.62462622      -0.97989111       5.03447225
Br       3.73653477      -0.83939492       7.71904803
H        1.20819047       0.45197799       2.63827283
H        1.13925871      -2.79237153      -0.25102656
H        5.22802200      -2.94031750       5.67140380
H        1.85178266      -0.24398522       5.21416309
