85
Properties=species:S:1:pos:R:3 pbc="F F F"
C        0.00000000       0.00000000       0.00000000
C        0.87119127       0.87119127      -0.87119127
C        0.66322697       2.24925816      -1.07791902
C        1.66254819       2.67713584      -1.92728541
N        2.45360623       1.59571223      -2.22884870
H        3.26404064       1.62216079      -2.83389160
C        1.97604491       0.48138653      -1.58491597
C        1.88082994       3.98730077      -2.42983655
C        2.07039811       5.09334809      -2.85658318
C        2.32110696       6.50124579      -3.40456804
C        2.52931615       7.60070451      -3.83938098
C        2.78835556       8.89684043      -4.35963473
N        2.02405405      10.00495970      -4.08745565
H        1.20471722      10.01213956      -3.49399430
C        2.54341895      11.09411243      -4.74224038
C        3.64661639      10.66090876      -5.43331350
C        3.81153321       9.28167086      -5.20127081
Br       4.77471326      11.69134438      -6.51461589
H       -0.12192287       2.86484289      -0.65888456
H        2.46358938      -0.47779403      -1.69401480
H        2.08266598      12.06876375      -4.65580605
H        4.58428683       8.63616564      -5.59778188
C       -0.87119127      -0.87119127      -0.87119127
C       -0.42324343      -2.02800714      -1.53915359
C       -1.50886136      -2.53572726      -2.22238082
N       -2.58327529      -1.71549254      -1.97939933
H       -3.51220861      -1.85140155      -2.35648287
C       -2.20210073      -0.68996734      -1.15027935
C       -1.56154955      -3.69385865      -3.04255904
C       -1.61168204      -4.67262726      -3.73602008
C       -1.68564904      -5.92032816      -4.62094359
C       -1.75700139      -6.89695348      -5.31544677
C       -1.85601868      -8.05073035      -6.13808170
N       -0.80919364      -8.89705398      -6.41022177
H        0.13216187      -8.78666120      -6.05635175
C       -1.23812132      -9.90987714      -7.23177329
C       -2.57055170      -9.69342350      -7.47686345
C       -2.97122784      -8.52801622      -6.79523081
Br      -3.70680610     -10.74243044      -8.53143699
H        0.57389245      -2.44821947      -1.52747755
H       -2.90849500       0.06735412      -0.83866926
H       -0.55986811     -10.68452019      -7.56284748
H       -3.95689249      -8.08161852      -6.77972334
C       -0.87119127       0.87119127       0.87119127
C       -2.19537284       0.55824357       1.23678774
C       -2.64242825       1.59492827       2.02961292
N       -1.62466325       2.51001077       2.14349313
H       -1.67757001       3.37199300       2.67053002
C       -0.53202420       2.07470100       1.43562221
C       -3.91496311       1.73989632       2.64310782
C       -4.98880248       1.86671457       3.16481233
C       -6.35507273       2.03632171       3.83552636
C       -7.42144160       2.18006281       4.36789723
C       -8.67799226       2.36197925       5.00485921
N       -9.72361067       1.47590891       4.91694981
H       -9.70698083       0.61018425       4.39368600
C      -10.78747696       1.94600887       5.64628592
C      -10.40192204       3.14203917       6.19687744
C       -9.07811215       3.41494496       5.80141777
Br     -11.42638176       4.25849336       7.29579840
H       -2.76331171      -0.31973347       0.95822634
H        0.37808147       2.65785682       1.40003479
H      -11.71292783       1.38939993       5.70490803
H       -8.47842399       4.27696281       6.06284754
C        0.87119127      -0.87119127       0.87119127
C        2.08571890      -0.45394248       1.45074278
C        2.57220388      -1.52826464       2.16650091
N        1.68391087      -2.56647582       2.02778047
H        1.79096145      -3.48005826       2.44907331
C        0.63531342      -2.17302827       1.23400572
C        3.76907222      -1.60155846       2.92733657
C        4.77919412      -1.66836894       3.57276632
C        6.06469375      -1.76244249       4.39978456
C        7.06851352      -1.84826059       5.05262753
C        8.25192150      -1.96303977       5.82986945
N        9.16845487      -0.95356192       5.99445260
H        9.09609640      -0.03243828       5.58231641
C       10.19096436      -1.38764211       6.80116528
C        9.91012510      -2.68582338       7.14489017
C        8.69405601      -3.05955061       6.54086826
Br      10.93825892      -3.81097460       8.23144001
H        2.55679621       0.51613643       1.36114480
H       -0.17479523      -2.85134306       1.00326232
H       11.01703194      -0.73674354       7.05346030
H        8.19163817      -4.01541605       6.61118013
