114
Properties=species:S:1:pos:R:3 pbc="F F F"
C        1.78109530       1.78109530      -1.78109530
C        1.57313100       3.15916219      -1.98782305
C        2.57245222       3.58703987      -2.83718943
N        3.36351026       2.50561625      -3.13875272
H        4.17394466       2.53206481      -3.74379563
C        2.88594894       1.39129056      -2.49481999
C        2.79073396       4.89720479      -3.33974057
C        2.98030213       6.00325211      -3.76648721
C        3.23101099       7.41114982      -4.31447207
C        3.43922017       8.51060853      -4.74928501
C        3.69825958       9.80674446      -5.26953876
N        2.93395807      10.91486373      -4.99735967
H        2.11462125      10.92204359      -4.40389832
C        3.45332297      12.00401646      -5.65214440
C        4.55652042      11.57081278      -6.34321752
C        4.72143723      10.19157488      -6.11117483
H        0.78798116       3.77474691      -1.56878858
H        3.37349340       0.43210999      -2.60391882
H        2.99257001      12.97866777      -5.56571007
H        5.49419086       9.54606966      -6.50768591
C        5.42438247      12.36354255      -7.17507987
C        6.15121694      13.02745373      -7.87176459
Br       7.32644680      14.10094196      -8.99824486
C       -1.78109530      -1.78109530      -1.78109530
C       -1.36270846      -2.99382605      -2.36358172
C       -2.43770856      -3.48138144      -3.07759151
N       -3.47721680      -2.59513639      -2.93552604
H       -4.39156262      -2.70339227      -3.35485022
C       -3.08416670      -1.54716647      -2.14072632
C       -2.51082177      -4.67796462      -3.83889293
C       -2.57818470      -5.68895878      -4.48289797
C       -2.67404107      -6.97727333      -5.30531846
C       -2.76239529      -7.98509742      -5.95162100
C       -2.88134683      -9.17509319      -6.71810277
N       -1.86926575     -10.08751628      -6.88939944
H       -0.94272160     -10.00659930      -6.49124226
C       -2.30963710     -11.11995896      -7.67988777
C       -3.61406384     -10.84898077      -8.00750610
C       -3.98554741      -9.62936912      -7.40927042
H       -0.39168773      -3.46341630      -2.27641262
H       -3.76360718      -0.73883518      -1.90707985
H       -1.65819758     -11.94517244      -7.93357783
H       -4.94510715      -9.13278426      -7.47005501
C       -4.48779486     -11.65278436      -8.82242567
C       -5.21954459     -12.32596986      -9.50492081
Br      -6.40272201     -13.41445388     -10.60845773
C       -1.78109530       1.78109530       1.78109530
C       -3.11548109       1.48328180       2.12135333
C       -3.55886955       2.51450768       2.92330429
N       -2.52905568       3.41172366       3.06709989
H       -2.57692562       4.26622045       3.60665904
C       -1.43231768       2.97033909       2.36940272
C       -4.83845099       2.66988118       3.51934715
C       -5.91823020       2.80541755       4.02639370
C       -7.29203928       2.98600827       4.67858532
C       -8.36425614       3.13818272       5.19667486
C       -9.62765555       3.32988523       5.81700202
N      -10.68527560       2.46171009       5.69919578
H      -10.67379034       1.60398031       5.16279250
C      -11.75304800       2.93709702       6.41933880
C      -11.35779255       4.11835151       6.99440666
C      -10.02392769       4.37659775       6.62366150
H       -3.69243430       0.61866941       1.82041294
H       -0.51290719       3.53968803       2.35692700
H      -12.68775153       2.39417402       6.45502231
H       -9.41521069       5.22502237       6.90771336
C      -12.14573131       4.97635877       7.84091481
C      -12.80563002       5.69493985       8.54986539
Br     -13.87263043       6.85682467       9.69617852
C        1.78109530      -1.78109530       1.78109530
C        3.04306796      -1.39927323       2.27777504
C        3.51248846      -2.46080720       3.02338586
N        2.56817625      -3.45719745       2.98250552
H        2.65179682      -4.35325022       3.44475806
C        1.50052381      -3.04953201       2.22200366
C        4.74208691      -2.55843603       3.72715638
C        5.77975950      -2.64560912       4.32467282
C        7.10016685      -2.76529613       5.09116990
C        8.13100162      -2.87073703       5.69737507
C        9.34598152      -3.00824062       6.42032066
N       10.31838670      -2.04069947       6.48709530
H       10.27021494      -1.13847042       6.03187780
C       11.35868763      -2.48690600       7.26389020
C       11.03246112      -3.75030788       7.68778172
C        9.76982619      -4.08984435       7.16451641
H        3.55605433      -0.46047646       2.11498586
H        0.64714713      -3.69552386       2.06685122
H       12.22774884      -1.86802578       7.44117323
H        9.22528039      -5.01379051       7.30887552
C       11.82207310      -4.61350087       8.52743092
C       12.48337314      -5.33642500       9.23063712
Br      13.55263936      -6.50533218      10.36766208
C       -0.00445707       0.01189536      -1.78238275
H       -0.66409135       0.67374010      -2.43557963
H        0.65740317      -0.63156657      -2.45157240
C       -0.90989263      -0.90692880      -0.91072765
C        0.90977584       0.90977584      -0.90977584
C       -0.00465871       1.77757030       0.00794375
H       -0.66225468       2.44313916      -0.64384735
H        0.64322798       2.43503045       0.67728295
C       -1.78241447       0.00034974      -0.00472694
H       -2.45427497      -0.65498947       0.64260836
H       -2.43311707       0.67328779      -0.65473579
C       -0.91132561       0.90220522       0.91563759
C       -0.01476271      -0.02253852       1.78660255
H       -0.67934791      -0.69751639       2.42135241
H        0.63392994       0.61504881       2.47327442
C        0.01484550      -1.77751727      -0.01636693
H        0.67870853      -2.42144646      -0.68295456
H       -0.62264859      -2.45592969       0.64226336
C        1.78714474       0.01002794       0.00389507
H        2.44202412       0.67113390       0.66197326
H        2.45385902      -0.65136977      -0.64189061
C        0.91606151      -0.90478549       0.90901405
