93
Properties=species:S:1:pos:R:3 pbc="F F F"
C        0.00000000       0.00000000       0.00000000
C        0.87119127       0.87119127      -0.87119127
C        0.66322697       2.24925816      -1.07791902
C        1.66254819       2.67713584      -1.92728541
N        2.45360623       1.59571223      -2.22884870
H        3.26404064       1.62216079      -2.83389160
C        1.97604491       0.48138653      -1.58491597
C        1.88082994       3.98730077      -2.42983655
C        2.07039811       5.09334809      -2.85658318
C        2.32110696       6.50124579      -3.40456804
C        2.52931615       7.60070451      -3.83938098
C        2.78835556       8.89684043      -4.35963473
N        2.02405405      10.00495970      -4.08745565
H        1.20471722      10.01213956      -3.49399430
C        2.54341895      11.09411243      -4.74224038
C        3.64661639      10.66090876      -5.43331350
C        3.81153321       9.28167086      -5.20127081
H       -0.12192287       2.86484289      -0.65888456
H        2.46358938      -0.47779403      -1.69401480
H        2.08266598      12.06876375      -4.65580605
H        4.58428683       8.63616564      -5.59778188
C        4.51447845      11.45363853      -6.26517585
C        5.24131292      12.11754971      -6.96186056
Br       6.41654278      13.19103794      -8.08834083
C       -0.87119127      -0.87119127      -0.87119127
C       -0.44310603      -2.06770412      -1.47959401
C       -1.52159054      -2.56110869      -2.18427021
N       -2.57255052      -1.69400961      -2.01160703
H       -3.49168290      -1.81028653      -2.41812360
C       -2.18339636      -0.65254959      -1.20640146
C       -1.58800471      -3.74654014      -2.96342239
C       -1.64971873      -4.74818956      -3.62242109
C       -1.73840240      -6.02472892      -4.46378948
C       -1.82118931      -7.02350956      -5.12470277
C       -1.93361733      -8.20300891      -5.90820448
N       -0.91013317      -9.09625786      -6.11007836
H        0.02128654      -9.00678295      -5.72535467
C       -1.34677260     -10.12302189      -6.90997726
C       -2.66040411      -9.86786749      -7.21256705
C       -3.04145394      -8.66397166      -6.58904929
H        0.53648238      -2.52297260      -1.41531435
H       -2.87168017       0.14098633      -0.94911630
H       -0.68653766     -10.93356847      -7.18712965
H       -4.00958721      -8.18194815      -6.62669899
C       -3.53429575     -10.67261747      -8.02637960
C       -4.26618001     -11.34659558      -8.70794760
Br      -5.44957494     -12.43636118      -9.80998542
C       -0.87119127       0.87119127       0.87119127
C       -2.20343977       0.57008303       1.21688135
C       -2.64759622       1.60249727       2.01687595
N       -1.62030603       2.50360283       2.15425830
H       -1.66923090       3.35972919       2.69113294
C       -0.52442657       2.06354076       1.45438008
C       -3.92570163       1.75560540       2.61666022
C       -5.00423649       1.88924366       3.12684923
C       -6.37646602       2.06744289       3.78301189
C       -7.44745738       2.21778096       4.30416330
C       -8.70942133       2.40735237       4.92805703
N       -9.76452787       1.53528157       4.81665996
H       -9.75196601       0.67581194       4.28307313
C      -10.83148080       2.00951663       5.53877432
C      -10.43825613       3.19398716       6.10859536
C       -9.10649797       3.45542526       5.73255165
H       -2.77850489      -0.29743888       0.92073856
H        0.39303502       2.63589548       1.43694969
H      -11.76424624       1.46361411       5.57937543
H       -8.49967155       4.30680880       6.01175400
C      -11.22623386       4.05218882       6.95487014
C      -11.88616520       4.77093271       7.66362528
Br     -12.95321838       5.93308078       8.80962239
C        0.87119127      -0.87119127       0.87119127
C        2.12100011      -0.47919983       1.39020422
C        2.59479509      -1.54440408       2.12777027
N        1.66484501      -2.55279930       2.06052284
H        1.75447216      -3.45388356       2.51173731
C        0.60207794      -2.14921529       1.29105418
C        3.81600125      -1.63504606       2.84691993
C        4.84660840      -1.71637121       3.45734978
C        6.15806170      -1.82869975       4.24015934
C        7.18196499      -1.92850054       4.85893611
C        8.38884211      -2.05946969       5.59651892
N        9.34692520      -1.07989335       5.68965085
H        9.29256081      -0.17225164       5.24603863
C       10.38265329      -1.52260354       6.47451492
C       10.06805420      -2.79597715       6.87680730
C        8.81736346      -3.14533592       6.33177551
H        2.62324184       0.46857675       1.24713948
H       -0.24020596      -2.80448537       1.11553073
H       11.24069107      -0.89453121       6.67201350
H        8.28361371      -4.07843847       6.45618217
C       10.85799763      -3.65984131       7.71545388
C       11.51957525      -4.38332754       8.41782040
Br      12.58929031      -5.55314359       9.55348765
