106
Properties=species:S:1:pos:R:3 pbc="F F F"
C        1.78109530       1.78109530      -1.78109530
C        1.57313100       3.15916219      -1.98782305
C        2.57245222       3.58703987      -2.83718943
N        3.36351026       2.50561625      -3.13875272
H        4.17394466       2.53206481      -3.74379563
C        2.88594894       1.39129056      -2.49481999
C        2.79073396       4.89720479      -3.33974057
C        2.98030213       6.00325211      -3.76648721
C        3.23101099       7.41114982      -4.31447207
C        3.43922017       8.51060853      -4.74928501
C        3.69825958       9.80674446      -5.26953876
N        2.93395807      10.91486373      -4.99735967
H        2.11462125      10.92204359      -4.40389832
C        3.45332297      12.00401646      -5.65214440
C        4.55652042      11.57081278      -6.34321752
C        4.72143723      10.19157488      -6.11117483
Br       5.68461729      12.60124840      -7.42451991
H        0.78798116       3.77474691      -1.56878858
H        3.37349340       0.43210999      -2.60391882
H        2.99257001      12.97866777      -5.56571007
H        5.49419086       9.54606966      -6.50768591
C       -1.78109530      -1.78109530      -1.78109530
C       -1.34480413      -2.96242786      -2.41288424
C       -2.42623622      -3.46130701      -3.10913828
N       -3.48688574      -2.61212901      -2.90886448
H       -4.41006761      -2.73591352      -3.30382397
C       -3.10102811      -1.57676247      -2.09426890
C       -2.48698088      -4.63629939      -3.90439905
C       -2.54391251      -5.62920026      -4.57692869
C       -2.62652126      -6.89471419      -5.43539742
C       -2.70459029      -7.88502561      -6.10949781
C       -2.81148736      -9.05469333      -6.90836211
N       -1.77835785      -9.92999663      -7.13782699
H       -0.84282401      -9.83251798      -6.76522117
C       -2.21182422     -10.95143608      -7.94622353
C       -3.53323211     -10.71108597      -8.22623264
C       -3.92238377      -9.52190509      -7.57989809
Br      -4.66931902     -11.75828314      -9.28278343
H       -0.35796639      -3.40429078      -2.36925948
H       -3.79679414      -0.79707519      -1.81565288
H       -1.54414626     -11.74825347      -8.24454812
H       -4.89776502      -9.05350762      -7.59667378
C       -1.78109530       1.78109530       1.78109530
C       -3.10846051       1.47271222       2.13894351
C       -3.55437179       2.50775044       2.93455929
N       -2.53284765       3.41744424       3.05758734
H       -2.58418290       4.27716875       3.58845345
C       -1.43892977       2.98030225       2.35282746
C       -4.82910497       2.65585676       3.54271758
C       -5.90479723       2.78530428       4.05993994
C       -7.27341889       2.95822373       4.72499026
C       -8.34161150       3.10450787       5.25299434
C       -9.60029769       3.28937506       5.88487004
N      -10.64966084       2.40870229       5.78781834
H      -10.63463726       1.54538977       5.26053612
C      -11.71474413       2.88039573       6.51434396
C      -11.32616145       4.07196865       7.07242063
C       -9.99921531       4.34045354       6.68451810
Br     -12.35054002       5.18806905       8.17177653
H       -3.67921176       0.59876606       1.85353882
H       -0.52592104       3.55929378       2.32430739
H      -12.64308164       2.32791451       6.56595171
H       -9.39670956       5.19837110       6.95286576
C        1.78109530      -1.78109530       1.78109530
C        3.01490019      -1.37692366       2.32829238
C        3.49445119      -2.44652454       3.05570579
N        2.58339727      -3.46929838       2.95518358
H        2.68092765      -4.37640949       3.39246796
C        1.52705777      -3.07060271       2.17439901
C        4.70461675      -2.52879952       3.79426305
C        5.72593017      -2.60312313       4.42098815
C        7.02560761      -2.70664415       5.22438111
C        8.04039716      -2.79969681       5.85901975
C        9.23662280      -2.92285060       6.61506940
N       10.17585991      -1.92885646       6.74146510
H       10.11333872      -1.01472089       6.31250354
C       11.20558423      -2.36739419       7.53650540
C       10.90629310      -3.65272291       7.91153471
C        9.67131095      -4.01383856       7.33903744
Br      11.93369365      -4.77669186       9.00000010
H        3.50300531      -0.41839183       2.21011950
H        0.69936882      -3.73698581       1.97316759
H       12.04911941      -1.72831327       7.75951517
H        9.15177065      -4.95791409       7.43826168
C       -0.00445707       0.01189536      -1.78238275
H       -0.66409135       0.67374010      -2.43557963
H        0.65740317      -0.63156657      -2.45157240
C       -0.90989263      -0.90692880      -0.91072765
C        0.90977584       0.90977584      -0.90977584
C       -0.00465871       1.77757030       0.00794375
H       -0.66225468       2.44313916      -0.64384735
H        0.64322798       2.43503045       0.67728295
C       -1.78241447       0.00034974      -0.00472694
H       -2.45427497      -0.65498947       0.64260836
H       -2.43311707       0.67328779      -0.65473579
C       -0.91132561       0.90220522       0.91563759
C       -0.01476271      -0.02253852       1.78660255
H       -0.67934791      -0.69751639       2.42135241
H        0.63392994       0.61504881       2.47327442
C        0.01484550      -1.77751727      -0.01636693
H        0.67870853      -2.42144646      -0.68295456
H       -0.62264859      -2.45592969       0.64226336
C        1.78714474       0.01002794       0.00389507
H        2.44202412       0.67113390       0.66197326
H        2.45385902      -0.65136977      -0.64189061
C        0.91606151      -0.90478549       0.90901405
