69
Properties=species:S:1:pos:R:3 pbc="F F F"
C        0.00000000       0.00000000       0.00000000
C        0.86455381       0.86455381      -0.86455381
N        0.79278353       2.22566285      -0.93115448
H        0.14716256       2.79794924      -0.40434005
C        1.73150077       2.68292353      -1.82074106
C        2.40671169       1.58960508      -2.32563859
C        1.85327457       0.43248721      -1.71553616
C        3.49076648       1.59922624      -3.30370537
C        4.08120991       2.70649883      -3.88040540
N        5.05493258       2.26656375      -4.74074853
H        5.65603504       2.85154508      -5.30514757
C        5.08704555       0.90301774      -4.71749746
C        4.13288383       0.45056411      -3.83846686
Br       6.24280834      -0.15506014      -5.72146273
H        1.83483225       3.74135766      -2.01610535
H        2.14232676      -0.59740411      -1.87572473
H        3.89580924       3.76418446      -3.75362201
H        3.92389573      -0.58603461      -3.61142381
C       -0.86455381      -0.86455381      -0.86455381
N       -0.98230005      -0.74819848      -2.21910233
H       -0.49895644      -0.06472426      -2.78577115
C       -1.85470467      -1.70180214      -2.67865856
C       -2.29647526      -2.43205896      -1.59342115
C       -1.66482287      -1.89746420      -0.43901086
C       -3.23619369      -3.54946558      -1.60803881
C       -3.83142047      -4.12154785      -2.71514582
N       -4.64127545      -5.14008603      -2.28088337
H       -5.20514264      -5.74043138      -2.86715368
C       -4.56810891      -5.21847001      -0.92098183
C       -3.70695333      -4.24965287      -0.46530860
Br      -5.49297592      -6.44533810       0.12910309
H       -2.08416089      -1.77540775      -3.73272662
H       -1.77793458      -2.22750270       0.58478990
H       -3.74908428      -3.89526777      -3.76926365
H       -3.45029263      -4.06863213       0.56963983
C       -0.86455381       0.86455381       0.86455381
N       -0.93437805       0.78987787       2.22534495
H       -0.41030356       0.14178985       2.79735845
C       -1.82288151       1.72956550       2.68271836
C       -2.32380035       2.40836379       1.58979123
C       -1.71233980       1.85615451       0.43280363
C       -3.29944997       3.49459234       1.59965577
C       -3.87731304       4.08384449       2.70695661
N       -4.73447573       5.06048590       2.26728323
H       -5.29883868       5.66154197       2.85234704
C       -4.70808443       5.09560776       0.90386856
C       -3.83018239       4.14048869       0.45124372
Br      -5.70706888       6.25599937      -0.15385732
H       -2.02039450       1.83095971       3.74094104
H       -1.86956113       2.14787796      -0.59679170
H       -3.75332654       3.89578481       3.76450435
H       -3.60127714       3.93331807      -0.58531028
C        0.86455381      -0.86455381       0.86455381
N        1.00094936      -2.21593113       0.73272039
H        0.53210055      -2.78013518       0.03721612
C        1.87008114      -2.67604388       1.68904035
C        2.28829948      -1.59481139       2.43884449
C        1.64693841      -0.44205201       1.91230751
C        3.21656700      -1.61137622       3.56575486
C        3.89077357      -2.70505316       4.07228741
N        4.65596833      -2.27838493       5.12789159
H        5.25952109      -2.85790693       5.69529967
C        4.47449465      -0.93690041       5.29616569
C        3.58958192      -0.48526695       4.34706593
Br       5.30018267       0.09631969       6.60534795
H        2.11219526      -3.72795953       1.75214046
H        1.74458104       0.57911831       2.25518466
H        3.89434153      -3.74456348       3.77471070
H        3.25192459       0.53590846       4.23326880
