85
Properties=species:S:1:pos:R:3 pbc="F F F"
C        0.00000000       0.00000000       0.00000000
C        0.86463485       0.86463485      -0.86463485
N        0.68336191       2.20377117      -1.06383315
H       -0.05471917       2.75631748      -0.64871168
C        1.65826675       2.66892853      -1.91078459
C        2.46329712       1.60221461      -2.24718603
C        1.96127414       0.45532091      -1.58417875
C        3.59345857       1.66940050      -3.11004146
C        4.55056634       1.71059170      -3.83538780
C        5.77348093       1.74334149      -4.75505501
C        6.73698467       1.75001734      -5.47272080
C        7.88199194       1.73818564      -6.31865367
C        8.40027667       2.83858910      -6.96700794
N        9.49786659       2.42360744      -7.67956400
H       10.08725646       3.00889782      -8.25618451
C        9.67352340       1.08316463      -7.48715956
C        8.68913826       0.62118964      -6.64768229
Br      11.03274278       0.06440466      -8.24738325
H        1.69206476       3.71180723      -2.19675595
H        2.35898023      -0.55004810      -1.63056923
H        8.08788774       3.87425552      -6.98454647
H        8.56119052      -0.39816156      -6.30768371
C       -0.86463485      -0.86463485      -0.86463485
N       -0.79004106      -2.22677636      -0.93414881
H       -0.14251741      -2.79885011      -0.40894248
C       -1.72921234      -2.68418501      -1.82458251
C       -2.40293213      -1.58912816      -2.32063748
C       -1.85562945      -0.43251245      -1.71263190
C       -3.45861890      -1.64011152      -3.27417011
C       -4.35167507      -1.66721101      -4.07765976
C       -5.49153375      -1.68145937      -5.09888432
C       -6.38843543      -1.67307505      -5.89821233
C       -7.45307250      -1.64286687      -6.84289188
C       -8.01350232      -2.75065813      -7.44171326
N       -9.00550700      -2.31219599      -8.28333504
H       -9.59558842      -2.89635533      -8.86039505
C       -9.07384221      -0.94984471      -8.22016068
C       -8.12492962      -0.49706494      -7.33601563
Br     -10.26653842       0.10525347      -9.18324575
H       -1.83384075      -3.74230093      -2.02448626
H       -2.15490632       0.59410517      -1.87870020
H       -7.79631752      -3.80604701      -7.34432519
H       -7.93351820       0.53477119      -7.07196565
C       -0.86463485       0.86463485       0.86463485
N       -2.13623337       0.55721564       1.25751722
H       -2.63144428      -0.28795579       1.00682150
C       -2.62385689       1.57408249       2.04004049
C       -1.64017967       2.53420778       2.13831031
C       -0.52210753       2.08601737       1.39264891
C       -1.75399537       3.75146383       2.86744132
C       -1.83471732       4.78240665       3.47942186
C       -1.91789105       6.09950247       4.25448392
C       -1.96418305       7.13700076       4.85853900
C       -1.99941513       8.36991318       5.56950293
C       -3.06692163       8.82675335       6.31219874
N       -2.71618624      10.04434168       6.84051012
H       -3.29636048      10.62417568       7.43180263
C       -1.44820217      10.35533603       6.44030940
C       -0.96941816       9.33955521       5.64903681
Br      -0.53330365      11.90854656       6.90268049
H       -3.62175726       1.52387054       2.45500014
H        0.42102888       2.59996075       1.26056947
H       -4.03936164       8.39627094       6.51105714
H        0.00536602       9.29484922       5.18122946
C        0.86463485      -0.86463485       0.86463485
N        2.19855494      -0.66858176       1.08382954
H        2.74666999       0.08205526       0.68569527
C        2.66533419      -1.64808221       1.92456347
C        1.60496474      -2.47108956       2.23664346
C        0.46040945      -1.97569248       1.56467188
C        1.67537601      -3.61039013       3.08713439
C        1.71888221      -4.57405745       3.80360617
C        1.75396450      -5.80358114       4.71433179
C        1.76185514      -6.77052699       5.42734068
C        1.75089509      -7.91800408       6.26993207
C        2.84425952      -8.41634376       6.94527043
N        2.43235887      -9.52266368       7.64601548
H        3.01386817     -10.10133991       8.23713071
C        1.10077951      -9.72343502       7.41963306
C        0.64159431      -8.74695473       6.56946114
Br       0.08890986     -11.10217809       8.15344274
H        3.70464050      -1.67175791       2.22422953
H       -0.54021258      -2.38684911       1.59286482
H        3.87290520      -8.08406164       6.98972288
H       -0.37113851      -8.63776011       6.20409107
