93
Properties=species:S:1:pos:R:3 pbc="F F F"
C        0.00000000       0.00000000       0.00000000
C        0.86463485       0.86463485      -0.86463485
N        0.68336191       2.20377117      -1.06383315
H       -0.05471917       2.75631748      -0.64871168
C        1.65826675       2.66892853      -1.91078459
C        2.46329712       1.60221461      -2.24718603
C        1.96127414       0.45532091      -1.58417875
C        3.59345857       1.66940050      -3.11004146
C        4.55056634       1.71059170      -3.83538780
C        5.77348093       1.74334149      -4.75505501
C        6.73698467       1.75001734      -5.47272080
C        7.88199194       1.73818564      -6.31865367
C        8.40027667       2.83858910      -6.96700794
N        9.49786659       2.42360744      -7.67956400
H       10.08725646       3.00889782      -8.25618451
C        9.67352340       1.08316463      -7.48715956
C        8.68913826       0.62118964      -6.64768229
H        1.69206476       3.71180723      -2.19675595
H        2.35898023      -0.55004810      -1.63056923
H        8.08788774       3.87425552      -6.98454647
H        8.56119052      -0.39816156      -6.30768371
C       10.72526165       0.29486744      -8.07540627
C       11.60609242      -0.36533147      -8.56806289
Br      13.03032130      -1.43281726      -9.36464698
C       -0.86463485      -0.86463485      -0.86463485
N       -0.85680177      -2.23056439      -0.86360008
H       -0.26594963      -2.80585309      -0.27850728
C       -1.77360732      -2.68668149      -1.77769106
C       -2.36514979      -1.58694819      -2.36059978
C       -1.78951403      -0.42874719      -1.78251257
C       -3.37421848      -1.63521171      -3.36347034
C       -4.22716862      -1.65988891      -4.20948830
C       -5.31500368      -1.67087506      -5.28599870
C       -6.17017028      -1.65975608      -6.12979645
C       -7.18442868      -1.62614032      -7.12826225
C       -7.77109926      -2.73452666      -7.70024780
N       -8.69697176      -2.29193839      -8.61212788
H       -9.28738510      -2.87544375      -9.18950994
C       -8.69824154      -0.92643100      -8.61917506
C       -7.77164975      -0.47573004      -7.71063040
H       -1.92255905      -3.74729275      -1.93077614
H       -2.02719130       0.60137743      -2.01368748
H       -7.61343032      -3.79286776      -7.54039165
H       -7.54061686       0.55772309      -7.48781890
C       -9.54046426      -0.10526519      -9.44980591
C      -10.24582578       0.58246117     -10.14545924
Br     -11.38633572       1.69445654     -11.27027184
C       -0.86463485       0.86463485       0.86463485
N       -2.16293173       0.59524937       1.19278514
H       -2.68080651      -0.21763674       0.88714022
C       -2.64162255       1.59935314       1.99700418
C       -1.62508876       2.51264889       2.17496010
C       -0.49567438       2.04833818       1.45676124
C       -1.72029993       3.70327589       2.94932470
C       -1.78505873       4.71123158       3.60025553
C       -1.84758781       5.99839604       4.42589359
C       -1.87737867       7.01177123       5.07057291
C       -1.89274712       8.21546379       5.83062034
C       -2.97120886       8.68640847       6.54825638
N       -2.59421937       9.86596785       7.14085082
H       -3.17487356      10.44535497       7.73211026
C       -1.29908006      10.13936854       6.80539901
C       -0.82880317       9.13707178       5.99213524
H       -3.65725842       1.57437378       2.36899575
H        0.47209029       2.52717695       1.38441468
H       -3.96766913       8.28943090       6.68958970
H        0.16215179       9.07038993       5.56247452
C       -0.55898060      11.29509512       7.24145963
C        0.06085269      12.26301613       7.60666041
Br       1.06307069      13.82806254       8.19715917
C        0.86463485      -0.86463485       0.86463485
N        2.21261929      -0.71309228       1.02525467
H        2.77267359      -0.00023862       0.57739778
C        2.67470070      -1.67766168       1.88561749
C        1.59702755      -2.44586818       2.26980203
C        0.44648959      -1.93160023       1.62268398
C        1.65766403      -3.55402315       3.16121334
C        1.69281178      -4.49082445       3.91290960
C        1.71712607      -5.68539511       4.86935626
C        1.71645092      -6.62419891       5.61907298
C        1.69521688      -7.73761357       6.50600080
C        2.79466154      -8.25267664       7.15853554
N        2.36905982      -9.31458238       7.91739583
H        2.95105466      -9.89289897       8.50838516
C        1.02295090      -9.47120058       7.74969613
C        0.56796619      -8.51030334       6.87974066
H        3.72335662      -1.73087160       2.14639973
H       -0.56710221      -2.30167713       1.70492643
H        3.83610768      -7.95970805       7.15087399
H       -0.45350349      -8.37523735       6.54897881
C        0.22309962     -10.48411624       8.38831949
C       -0.44677582     -11.33243310       8.92316656
Br      -1.52990775     -12.70408973       9.78796904
