90
Properties=species:S:1:pos:R:3 pbc="F F F"
C        1.76643356       1.76643356      -1.76643356
H        2.63798820       2.18513397      -1.28117081
C        1.44359081       2.00191823      -3.14382632
C        2.21108614       2.74564627      -3.95328494
C        1.88360974       2.98761643      -5.33929154
H        0.94992242       2.57254071      -5.71280775
C        2.66641801       3.75878541      -6.27774476
H        3.55220490       4.25409916      -5.88436576
C        2.33925477       4.07617771      -7.65025098
C        1.78158410       3.20917670      -8.50739892
C        1.45886253       3.45554459      -9.88540265
H        1.17108252       2.64235980     -10.53985879
Br       1.38242413       5.13319280     -10.65703481
H        0.53140300       1.54423952      -3.52096820
H        3.12608317       3.20290271      -3.58220098
H        2.62021941       5.07823667      -7.96700621
H        1.55851958       2.19726259      -8.17410584
C       -1.76643356      -1.76643356      -1.76643356
H       -1.40369840      -1.92778875      -2.77280584
C       -2.98448409      -2.33658540      -1.26826586
C       -3.76619202      -3.13859835      -2.00522698
C       -4.99590870      -3.70882491      -1.50578409
H       -5.30359495      -3.43201216      -0.49966377
C       -5.87996977      -4.59423397      -2.22874445
H       -5.62523681      -4.79834884      -3.26708417
C       -7.14800322      -5.13105088      -1.78662936
C       -7.38161669      -5.57366204      -0.54288098
C       -8.60695713      -6.14066931      -0.05218332
H       -8.64354493      -6.62519612       0.91543995
Br     -10.23514846      -6.01928255      -0.91822073
H       -3.26053119      -2.09123652      -0.24484301
H       -3.49317178      -3.38989114      -3.02812394
H       -7.91137232      -5.19508477      -2.55900520
H       -6.58121163      -5.54282528       0.19414891
C       -1.76643356       1.76643356       1.76643356
H       -2.82301999       1.74640223       1.53487076
C       -1.20845843       2.55262535       2.82825158
C       -1.95673538       3.31376258       3.63951939
C       -1.39471298       4.11004256       4.70576216
H       -0.31217034       4.10928703       4.81381351
C       -2.13357669       4.93800456       5.63136694
H       -3.20683393       5.01598834       5.46784755
C       -1.60223382       5.79713533       6.66631430
C       -0.57238752       5.46707676       7.45869543
C       -0.01825349       6.26323265       8.51832362
H        0.69810077       5.84011067       9.21129120
Br      -0.35174090       8.06555454       8.75535631
H       -0.12908132       2.50939776       2.95813164
H       -3.03693671       3.35805715       3.51619300
H       -2.13168627       6.73867149       6.79510452
H       -0.09565507       4.49597819       7.33825474
C        1.76643356      -1.76643356       1.76643356
H        1.54197205      -1.73796303       2.82435791
C        2.80996707      -2.57435474       1.20501354
C        3.58225492      -3.38181597       1.94594647
C        4.63701654      -4.19174020       1.38176096
H        4.82269444      -4.09873289       0.31384355
C        5.49655700      -5.09821336       2.10817783
H        5.37714954      -5.12377431       3.18974597
C        6.60189862      -5.87368726       1.59009759
C        6.58490400      -6.50549489       0.40776082
C        7.63712072      -7.31045860      -0.14776956
H        7.46331664      -7.91741242      -1.02742795
Br       9.37919694      -7.32417920       0.46927561
H        2.95791078      -2.50966022       0.12903971
H        3.43641930      -3.45286062       3.02190694
H        7.45818578      -5.95066239       2.25661411
H        5.69332367      -6.45082254      -0.21425820
C       -0.00445707       0.01189536      -1.78238275
H       -0.66409135       0.67374010      -2.43557963
H        0.65740317      -0.63156657      -2.45157240
C       -0.90989263      -0.90692880      -0.91072765
C        0.90977584       0.90977584      -0.90977584
C       -0.00465871       1.77757030       0.00794375
H       -0.66225468       2.44313916      -0.64384735
H        0.64322798       2.43503045       0.67728295
C       -1.78241447       0.00034974      -0.00472694
H       -2.45427497      -0.65498947       0.64260836
H       -2.43311707       0.67328779      -0.65473579
C       -0.91132561       0.90220522       0.91563759
C       -0.01476271      -0.02253852       1.78660255
H       -0.67934791      -0.69751639       2.42135241
H        0.63392994       0.61504881       2.47327442
C        0.01484550      -1.77751727      -0.01636693
H        0.67870853      -2.42144646      -0.68295456
H       -0.62264859      -2.45592969       0.64226336
C        1.78714474       0.01002794       0.00389507
H        2.44202412       0.67113390       0.66197326
H        2.45385902      -0.65136977      -0.64189061
C        0.91606151      -0.90478549       0.90901405
