98
Properties=species:S:1:pos:R:3 pbc="F F F"
C        1.76643356       1.76643356      -1.76643356
H        2.63798820       2.18513397      -1.28117081
C        1.44359081       2.00191823      -3.14382632
C        2.21108614       2.74564627      -3.95328494
C        1.88360974       2.98761643      -5.33929154
H        0.94992242       2.57254071      -5.71280775
C        2.66641801       3.75878541      -6.27774476
H        3.55220490       4.25409916      -5.88436576
C        2.33925477       4.07617771      -7.65025098
C        1.78158410       3.20917670      -8.50739892
C        1.45886253       3.45554459      -9.88540265
H        1.17108252       2.64235980     -10.53985879
H        0.53140300       1.54423952      -3.52096820
H        3.12608317       3.20290271      -3.58220098
H        2.62021941       5.07823667      -7.96700621
H        1.55851958       2.19726259      -8.17410584
C        1.39930588       4.76267691     -10.48661650
C        1.34942720       5.85740023     -10.99013310
Br       1.26877758       7.62747525     -11.80427687
C       -1.76643356      -1.76643356      -1.76643356
H       -1.59337313      -1.68006703      -2.83085282
C       -2.74520291      -2.64679333      -1.19733911
C       -3.51444253      -3.45558588      -1.93998894
C       -4.50419675      -4.33859541      -1.36772554
H       -4.64353156      -4.30236791      -0.28937142
C       -5.35538555      -5.25093689      -2.09662576
H       -5.28584541      -5.22235861      -3.18246580
C       -6.39932122      -6.09987592      -1.56648632
C       -6.29855098      -6.78255207      -0.41705666
C       -7.28639422      -7.66010414       0.14668860
H       -7.04446482      -8.29705179       0.98821550
H       -2.84523586      -2.63740907      -0.11396579
H       -3.41622797      -3.47140643      -3.02355247
H       -7.28163443      -6.18700047      -2.19682739
H       -5.38210769      -6.71403228       0.16625197
C       -8.66294855      -7.71292534      -0.27272541
C       -9.81581279      -7.75716309      -0.62398465
Br     -11.67989677      -7.82869180      -1.19194112
C       -1.76643356       1.76643356       1.76643356
H       -2.75830039       1.96380260       1.38219000
C       -1.29125631       2.27950516       3.01857388
C       -2.04854454       3.03105036       3.83042246
C       -1.56870902       3.55259613       5.08921256
H       -0.53324370       3.34864057       5.35338662
C       -2.32679707       4.35079082       6.02536030
H       -3.33227193       4.63650193       5.72189595
C       -1.86218843       4.94345427       7.26004076
C       -1.04486146       4.32735463       8.12594362
C       -0.57158187       4.85111666       9.37711123
H       -0.05603208       4.21324420      10.08402482
H       -0.26889257       2.03152675       3.29619140
H       -3.07268835       3.27924749       3.55925102
H       -2.26174939       5.93310571       7.47060718
H       -0.70243289       3.31680937       7.91064574
C       -0.65024163       6.23654788       9.76180979
C       -0.71611918       7.39684653      10.08399483
Br      -0.82263761       9.27295130      10.60494078
C        1.76643356      -1.76643356       1.76643356
H        1.58769199      -1.68620665       2.83039435
C        2.75235877      -2.63911354       1.19786305
C        3.52192601      -3.44777315       1.94031820
C        4.51886461      -4.32303284       1.36862025
H        4.66334175      -4.28076612       0.29116301
C        5.37096084      -5.23476588       2.09722146
H        5.29591805      -5.21192088       3.18283089
C        6.42170244      -6.07589740       1.56808362
C        6.32999943      -6.75334974       0.41481054
C        7.32495795      -7.62320381      -0.14835201
H        7.09035167      -8.25715406      -0.99420463
H        2.85769302      -2.62385859       0.11505911
H        3.41844109      -3.46945619       3.02328959
H        7.30131344      -6.16179087       2.20235797
H        5.41611926      -6.68646255      -0.17269381
C        8.69966938      -7.67130707       0.27762284
C        9.85099020      -7.71159355       0.63437678
Br      11.71257859      -7.77673338       1.21121773
C       -0.00445707       0.01189536      -1.78238275
H       -0.66409135       0.67374010      -2.43557963
H        0.65740317      -0.63156657      -2.45157240
C       -0.90989263      -0.90692880      -0.91072765
C        0.90977584       0.90977584      -0.90977584
C       -0.00465871       1.77757030       0.00794375
H       -0.66225468       2.44313916      -0.64384735
H        0.64322798       2.43503045       0.67728295
C       -1.78241447       0.00034974      -0.00472694
H       -2.45427497      -0.65498947       0.64260836
H       -2.43311707       0.67328779      -0.65473579
C       -0.91132561       0.90220522       0.91563759
C       -0.01476271      -0.02253852       1.78660255
H       -0.67934791      -0.69751639       2.42135241
H        0.63392994       0.61504881       2.47327442
C        0.01484550      -1.77751727      -0.01636693
H        0.67870853      -2.42144646      -0.68295456
H       -0.62264859      -2.45592969       0.64226336
C        1.78714474       0.01002794       0.00389507
H        2.44202412       0.67113390       0.66197326
H        2.45385902      -0.65136977      -0.64189061
C        0.91606151      -0.90478549       0.90901405
