77
Properties=species:S:1:pos:R:3 pbc="F F F"
C        0.00000000       0.00000000       0.00000000
C        0.85652953       0.85652953      -0.85652953
H        1.72808418       1.27522995      -0.37126679
C        0.53368679       1.09201420      -2.23392229
C        1.30118212       1.83574225      -3.04338092
C        0.97370571       2.07771240      -4.42938751
H        0.04001839       1.66263669      -4.80290373
C        1.75651399       2.84888139      -5.36784074
H        2.64230087       3.34419514      -4.97446173
C        1.42935074       3.16627369      -6.74034696
C        0.87168007       2.29927267      -7.59749489
C        0.54895850       2.54564056      -8.97549862
H        0.26117849       1.73245577      -9.62995477
H       -0.37850103       0.63433550      -2.61106417
H        2.21617915       2.29299869      -2.67229696
H        1.71031538       4.16833264      -7.05710218
H        0.64861555       1.28735857      -7.26420181
C        0.48940186       3.85277289      -9.57671248
C        0.43952317       4.94749621     -10.08022908
Br       0.35887356       6.71757123     -10.89437284
C       -0.85652953      -0.85652953      -0.85652953
H       -0.70890255      -0.74340641      -1.92227195
C       -1.80326973      -1.77035220      -0.28600135
C       -2.57106876      -2.57969994      -1.02953659
C       -3.52866145      -3.49648189      -0.45566228
H       -3.64491802      -3.48662608       0.62598530
C       -4.37583175      -4.41143424      -1.18597012
H       -4.33090081      -4.35789357      -2.27216336
C       -5.38924507      -5.29444807      -0.65227825
C       -5.24842272      -5.99938979       0.47936488
C       -6.20441113      -6.91049082       1.04480427
H       -5.93027798      -7.55996401       1.86665296
H       -1.87955292      -1.78656801       0.79922228
H       -2.49646833      -2.56995337      -2.11505310
H       -6.28316541      -5.38739127      -1.26519353
H       -4.32102471      -5.92327403       1.04412281
C       -7.58842348      -6.98460607       0.65414232
C       -8.74753382      -7.04667758       0.32696294
Br     -10.62171720      -7.14704198      -0.20205844
C       -0.85652953       0.85652953       0.85652953
H       -1.86846203       1.00303740       0.50308148
C       -0.35582503       1.43345537       2.07034289
C       -1.11091159       2.18706834       2.88232535
C       -0.60563324       2.77287721       4.10229518
H        0.44571847       2.61684482       4.33443245
C       -1.35875788       3.57773923       5.03673900
H       -2.38467633       3.81502238       4.76125904
C       -0.87224754       4.23310380       6.23062005
C       -0.00128384       3.68027632       7.08688748
C        0.49708663       4.26777212       8.29941220
H        1.06172637       3.67622096       9.00909444
H        0.68459423       1.23349161       2.31800126
H       -2.15288222       2.38742914       2.64116343
H       -1.30096227       5.21480833       6.41997961
H        0.37099377       2.67544966       6.89572004
C        0.38022415       5.66296031       8.63615105
C        0.28235181       6.83143043       8.91816984
Br       0.12410053       8.72074778       9.37417038
C        0.85652953      -0.85652953       0.85652953
H        0.71669676      -0.73543679       1.92244736
C        1.79345622      -1.78031744       0.28584962
C        2.56082201      -2.58982271       1.02966056
C        3.50855918      -3.51666348       0.45558297
H        3.61772536      -3.51467971      -0.62684626
C        4.35451186      -4.43238032       1.18634394
H        4.31711458      -4.37141199       2.27243116
C        5.35855460      -5.32555954       0.65185724
C        5.20562850      -6.03697120      -0.47415207
C        6.15185451      -6.95806530      -1.03982213
H        5.86803551      -7.61109521      -1.85554169
H        1.86245591      -1.80416339      -0.79972065
H        2.49346447      -2.57245490       2.11555542
H        6.25587736      -5.42038286       1.25948999
H        4.27503734      -5.95843706      -1.03329847
C        7.53790248      -7.03876068      -0.65777594
C        8.69871765      -7.10634306      -0.33781225
Br      10.57565761      -7.21561805       0.17954196
