114
Properties=species:S:1:pos:R:3 pbc="F F F"
C        1.77196347       1.77196347      -1.77196347
C        2.91010003       2.33932677      -1.35748231
C        3.72925369       3.17130397      -2.21073163
C        4.86977991       3.73943409      -1.79428617
C        5.64672589       4.54452066      -2.64577108
C        6.30440017       5.22601556      -3.36654156
C        7.06034761       6.00934303      -4.19501336
C        7.71802188       6.69083792      -4.91578384
C        8.49496787       7.49592449      -5.76726875
C        8.60858696       8.81838019      -5.58131749
C        9.39600812       9.66437466      -6.45076336
C        9.51121592      10.98534130      -6.27365403
H        1.38003717       1.89315066      -2.77553841
H        3.24888516       2.17790287      -0.33581861
H        3.38855372       3.33195370      -3.23262886
H        5.22831775       3.59262034      -0.77934117
H        9.00186714       7.00401718      -6.59280418
H        8.09223364       9.29345751      -4.74860124
H        9.91050245       9.18928611      -7.28393155
H        9.02496580      11.51980704      -5.46568794
C       10.28717165      11.84492798      -7.12957659
C       10.93703458      12.56483182      -7.84641174
Br      11.98780797      13.72885545      -9.00547355
C       -1.77196347      -1.77196347      -1.77196347
C       -1.52066201      -2.02518417      -3.06106293
C       -2.37052815      -2.86367444      -3.87708670
C       -2.11770459      -3.11681065      -5.16898493
C       -2.96186676      -3.93599447      -5.93915640
C       -3.67643863      -4.62942250      -6.59109615
C       -4.49778561      -5.42646621      -7.34045217
C       -5.21235749      -6.11989424      -7.99239192
C       -6.05651966      -6.93907806      -8.76256339
C       -6.81509840      -6.44318800      -9.74999825
C       -7.69559664      -7.26790518     -10.54764433
C       -8.45827861      -6.77964867     -11.53228396
H       -2.62894041      -2.17537129      -1.24441454
H       -0.64192511      -1.58860718      -3.53207435
H       -3.24951568      -3.29944433      -3.40417627
H       -1.24681329      -2.69267440      -5.66079157
H       -6.07606136      -7.99881576      -8.52381137
H       -6.78245250      -5.37802356      -9.97381633
H       -7.72914261      -8.33219567     -10.32238184
H       -8.47258026      -5.73113976     -11.80674077
C       -9.34333953      -7.58314016     -12.33519654
C      -10.08457804      -8.25606428     -13.00763582
Br     -11.28309802      -9.34412568     -14.09491327
C       -1.77196347       1.77196347       1.77196347
C       -1.54347549       1.99209029       3.07134332
C       -2.39284665       2.83130777       3.88713487
C       -2.16290008       3.05125727       5.18934281
C       -3.00598233       3.87203104       5.95900426
C       -3.71964006       4.56680495       6.61051227
C       -4.53993629       5.36539565       7.35937206
C       -5.25359402       6.06016956       8.01088007
C       -6.09667627       6.88094333       8.78054152
C       -6.88700312       6.38075495       9.74052656
C       -7.76688536       7.20726545      10.53699534
C       -8.56108978       6.71485614      11.49426533
H       -2.60843759       2.20511640       1.23517226
H       -0.68472676       1.52651536       3.55136452
H       -3.25182172       3.29612195       3.40519261
H       -1.31218118       2.59784470       5.69025338
H       -6.08839898       7.94570697       8.56458254
H       -6.88197256       5.31060004       9.94171979
H       -7.77280273       8.27659726      10.33432013
H       -8.60373338       5.66129211      11.74543529
C       -9.44610013       7.52013793      12.29543817
C      -10.18729629       8.19456143      12.96642042
Br     -11.38574781       9.28504718      14.05134198
C        1.77196347      -1.77196347       1.77196347
C        2.81629293      -2.47323488       1.31738129
C        3.63748247      -3.30226923       2.17153759
C        4.68394039      -4.00468315       1.71487663
C        5.46532829      -4.80333532       2.56835401
C        6.12676260      -5.47938359       3.29081109
C        6.88703191      -6.25645058       4.12122152
C        7.54846621      -6.93249885       4.84367859
C        8.32985411      -7.73115102       5.69715597
C        8.31533063      -9.06934253       5.62361148
C        9.10533655      -9.90804500       6.49776459
C        9.09331925     -11.24416588       6.43272612
H        1.46434321      -1.77279256       2.81159047
H        3.07288830      -2.42914578       0.26057255
H        3.37907278      -3.34539618       3.22866731
H        4.95953026      -3.97633102       0.66441798
H        8.94910958      -7.22030872       6.42927019
H        7.68744357      -9.56322167       4.88362715
H        9.73142097      -9.41394768       7.23835147
H        8.49260448     -11.79765577       5.72020054
C        9.86958170     -12.09644034       7.29565419
C       10.51970150     -12.81022021       8.01835644
Br      11.57089023     -13.96434188       9.18690486
C       -0.00445707       0.01189536      -1.78238275
H       -0.66409135       0.67374010      -2.43557963
H        0.65740317      -0.63156657      -2.45157240
C       -0.90989263      -0.90692880      -0.91072765
C        0.90977584       0.90977584      -0.90977584
C       -0.00465871       1.77757030       0.00794375
H       -0.66225468       2.44313916      -0.64384735
H        0.64322798       2.43503045       0.67728295
C       -1.78241447       0.00034974      -0.00472694
H       -2.45427497      -0.65498947       0.64260836
H       -2.43311707       0.67328779      -0.65473579
C       -0.91132561       0.90220522       0.91563759
C       -0.01476271      -0.02253852       1.78660255
H       -0.67934791      -0.69751639       2.42135241
H        0.63392994       0.61504881       2.47327442
C        0.01484550      -1.77751727      -0.01636693
H        0.67870853      -2.42144646      -0.68295456
H       -0.62264859      -2.45592969       0.64226336
C        1.78714474       0.01002794       0.00389507
H        2.44202412       0.67113390       0.66197326
H        2.45385902      -0.65136977      -0.64189061
C        0.91606151      -0.90478549       0.90901405
