93
Properties=species:S:1:pos:R:3 pbc="F F F"
C        0.00000000       0.00000000       0.00000000
C        0.86205945       0.86205945      -0.86205945
C        2.00019600       1.42942274      -0.44757829
C        2.81934966       2.26139995      -1.30082761
C        3.95987589       2.82953007      -0.88438214
C        4.73682187       3.63461663      -1.73586706
C        5.39449614       4.31611153      -2.45663753
C        6.15044358       5.09943900      -3.28510934
C        6.80811786       5.78093390      -4.00587982
C        7.58506384       6.58602047      -4.85736473
C        7.69868293       7.90847616      -4.67141347
C        8.48610410       8.75447064      -5.54085934
C        8.60131189      10.07543728      -5.36375001
H        0.47013315       0.98324664      -1.86563439
H        2.33898113       1.26799884       0.57408541
H        2.47864969       2.42204968      -2.32272483
H        4.31841372       2.68271631       0.13056285
H        8.09196311       6.09411315      -5.68290015
H        7.18232962       8.38355348      -3.83869721
H        9.00059843       8.27938209      -6.37402753
H        8.11506178      10.60990302      -4.55578392
C        9.37726763      10.93502396      -6.21967257
C       10.02713056      11.65492780      -6.93650772
Br      11.07790395      12.81895143      -8.09556953
C       -0.86205945      -0.86205945      -0.86205945
C       -0.61449640      -1.10974403      -2.15295660
C       -1.46428146      -1.94835594      -2.96893982
C       -1.21520673      -2.19594051      -4.26264086
C       -2.05919200      -3.01539025      -5.03272330
C       -2.77361414      -3.70904339      -5.68458768
C       -3.59478900      -4.50634584      -6.43385709
C       -4.30921113      -5.19999897      -7.08572147
C       -5.15319641      -6.01944872      -7.85580391
C       -5.91710281      -5.52275335      -8.83871641
C       -6.79750281      -6.34776867      -9.63616260
C       -7.56547491      -5.85873158     -10.61629268
H       -1.71567662      -1.27044317      -0.33289438
H        0.26096506      -0.66831612      -2.62554350
H       -2.33998961      -2.38898447      -2.49445012
H       -0.34762102      -1.76690679      -4.75603938
H       -5.16807357      -7.08010017      -7.62080268
H       -5.88908730      -4.45668164      -9.05881138
H       -6.82641631      -7.41297488      -9.41461686
H       -7.58452898      -4.80930253     -10.88691720
C       -8.45053268      -6.66251901     -11.41891246
C       -9.19176856      -7.33569099     -12.09110652
Br     -10.39028430      -8.42415314     -13.17798747
C       -0.86205945       0.86205945       0.86205945
C       -0.63892552       1.07464850       2.16362301
C       -1.48818046       1.91403164       2.97936512
C       -1.26360286       2.12642222       4.28376301
C       -2.10643152       2.94755824       5.05331581
C       -2.81987458       3.64263878       5.70473184
C       -3.63992409       4.44158192       6.45348591
C       -4.35336716       5.13666246       7.10490195
C       -5.19619581       5.95779848       7.87445474
C       -5.99372015       5.45680578       8.82804663
C       -6.87345236       6.28372851       9.62425321
C       -7.67480240       5.79054726      10.57514951
H       -1.69372177       1.30198742       0.32330498
H        0.21513221       0.60246870       2.64555806
H       -2.34245876       2.38546128       2.49550416
H       -0.41761827       1.66634134       4.78660758
H       -5.18160416       7.02355907       7.66381319
H       -5.99495774       4.38566091       9.02396166
H       -6.87309827       7.35406198       9.42684779
H       -7.72387869       4.73598268      10.82088734
C       -8.55979046       6.59624400      11.37592968
C       -9.30096796       7.27101503      12.04658308
Br     -10.49938930       8.36206271      13.13097289
C        0.86205945      -0.86205945       0.86205945
C        1.91588391      -1.55090828       0.41040485
C        2.73686710      -2.38021583       1.26449429
C        3.79284648      -3.07017229       0.81076932
C        4.57378408      -3.86942187       1.66409961
C        5.23483720      -4.54597584       2.38643216
C        5.99466838      -5.32362408       3.21669946
C        6.65572150      -6.00017805       3.93903202
C        7.43665910      -6.79942764       4.79236230
C        7.43385377      -8.13703657       4.70768223
C        8.22357109      -8.97643441       5.58142858
C        8.22318452     -10.31202284       5.50529181
H        0.54590577      -0.87405416       1.89905424
H        2.18079846      -1.49593404      -0.64383794
H        2.47012772      -2.43424559       2.31905090
H        4.07683261      -3.03083026      -0.23709569
H        8.04560154      -6.28959972       5.53377516
H        6.81620429      -8.62990821       3.95846782
H        8.83941127      -8.48336445       6.33123232
H        7.63297432     -10.86450540       4.78326899
C        8.99936443     -11.16501173       6.36758799
C        9.64941511     -11.87938992       7.08976104
Br      10.70049208     -13.03447904       8.25745378
