170
Properties=species:S:1:pos:R:3 pbc="F F F"
N        6.34261330       5.71022572      -4.44290987
C        5.37156863       5.06414852      -3.53867908
H        5.92905854       4.23390354      -3.08742325
C        4.12109006       4.46114288      -4.30434358
H        3.46815895       5.29387686      -4.59544117
C        3.31462513       3.50858748      -3.43050858
C        1.98555518       3.81856094      -3.11368646
C        1.23177574       2.96965485      -2.30335922
C        1.79695539       1.79695539      -1.79695539
C        3.12393979       1.45766416      -2.09792629
C        3.86873497       2.32052018      -2.92234034
C        3.77112946       0.20713024      -1.57140166
N        4.48492357       3.81336791      -5.57964410
C        4.95206425       6.01570439      -2.42613240
C        5.21920535       5.68066988      -1.09218745
C        4.82020439       6.52320580      -0.05471132
C        4.14856746       7.71515254      -0.33595256
C        3.87196699       8.08129258      -1.66153651
C        4.28391070       7.22315188      -2.69665869
C        3.14680097       9.35210190      -2.00747982
Br       3.63184101       8.79658597       1.13717423
H        6.91270593       6.36686680      -3.91374720
H        5.83309643       6.24178026      -5.14658998
H        1.52586885       4.73019399      -3.49110269
H        0.20373576       3.23453312      -2.07013573
H        4.89769140       2.06351792      -3.16874443
H        4.81558413       0.12999346      -1.89207010
H        3.24832848      -0.67964883      -1.94343662
H        3.76865671       0.20592364      -0.47658486
H        3.75104844       3.16082823      -5.84860212
H        5.33840499       3.27481815      -5.44193941
H        5.73289795       4.75289787      -0.84779615
H        5.03415650       6.23675104       0.97170242
H        4.07540592       7.49704155      -3.72990216
H        3.02958967       9.46542854      -3.09067714
H        3.70523890      10.22227878      -1.64799605
H        2.14296475       9.35042945      -1.57046782
N       -5.13461710      -4.76598435      -6.59514745
C       -4.48185522      -3.77662991      -5.71591111
H       -3.43953691      -3.75323735      -6.05761108
C       -4.49184543      -4.20518632      -4.18954477
H       -5.50641565      -4.05031635      -3.80074499
C       -3.52987756      -3.37294005      -3.35090358
C       -4.03073385      -2.56671038      -2.32035836
C       -3.17148138      -1.78459154      -1.54871690
C       -1.79695539      -1.79695539      -1.79695539
C       -1.26462518      -2.59519366      -2.81971139
C       -2.14346116      -3.38375896      -3.58437537
C        0.20748605      -2.63546885      -3.12167856
N       -4.23722330      -5.64589069      -3.99482158
C       -5.08093348      -2.39166676      -5.92130080
C       -4.26692639      -1.34687122      -6.37826507
C       -4.78665622      -0.06368366      -6.54778162
C       -6.12976458       0.19391187      -6.26381985
C       -6.97163405      -0.83254109      -5.81062094
C       -6.43375105      -2.12169120      -5.64827902
C       -8.42115303      -0.59687229      -5.48835737
Br      -6.75092267       1.97136202      -6.51169210
H       -5.41793425      -4.31351881      -7.46186687
H       -5.97708554      -5.10808058      -6.13630056
H       -5.09880999      -2.53553173      -2.11282381
H       -3.58571214      -1.16563764      -0.75705483
H       -1.74056650      -4.01310675      -4.37628049
H        0.42559036      -3.29380440      -3.96943365
H        0.76425444      -3.01658828      -2.25978243
H        0.57213145      -1.63751390      -3.38578276
H       -3.91100218      -5.80582303      -3.04365357
H       -3.49282293      -5.93553406      -4.62680557
H       -3.21523362      -1.52113692      -6.59722143
H       -4.13215564       0.73046536      -6.89751484
H       -7.07774867      -2.92693580      -5.29766517
H       -8.91324168      -1.51711441      -5.15533926
H       -8.95828763      -0.24308603      -6.37414007
H       -8.51886454       0.13474491      -4.67974238
N       -4.81020990       5.08091672       6.60462228
C       -4.12646677       4.05706968       5.79085979
H       -3.05919082       4.28227524       5.90891928
C       -4.48406363       4.15322174       4.24929115
H       -5.49580997       3.75124099       4.11042602
C       -3.52790786       3.34170961       3.38410372
C       -4.01929221       2.26695241       2.63155797
C       -3.16106792       1.50011015       1.84361175
C       -1.79695539       1.79695539       1.79695539
C       -1.27491805       2.86775525       2.53685693
C       -2.15452960       3.63603933       3.32102656
C        0.18659799       3.21917744       2.51708192
N       -4.56923379       5.54454205       3.76415974
C       -4.38290006       2.66310045       6.34790053
C       -3.30516912       1.88908481       6.79780876
C       -3.51225309       0.59926889       7.28659952
C       -4.80154116       0.06409093       7.33404047
C       -5.90169292       0.81647245       6.89663071
C       -5.67712808       2.11660110       6.40999209
C       -7.30455403       0.27642460       6.92540407
Br      -4.99100418      -1.70305356       8.00330213
H       -4.84244964       4.77568583       7.57518446
H       -5.77062339       5.17260025       6.27824303
H       -5.07731258       2.01248068       2.65737227
H       -3.56702924       0.66984893       1.27152644
H       -1.76159583       4.47443876       3.89391915
H        0.40498316       4.06562157       3.17700929
H        0.49787739       3.50314667       1.50684699
H        0.78887629       2.37408603       2.86595547
H       -4.44962080       5.55775576       2.75310222
H       -3.80429453       6.08065698       4.17021105
H       -2.29053181       2.28100438       6.76205579
H       -2.65819190       0.01751600       7.62349722
H       -6.52350910       2.71064928       6.06819126
H       -8.02530719       1.01074051       6.54964765
H       -7.59849628       0.02706200       7.94995545
H       -7.38514924      -0.61208384       6.29079662
N        6.61556076      -4.94921740       4.93097074
C        5.77219267      -4.28182199       3.92038158
H        5.99759953      -3.21456427       4.03822154
C        4.22130044      -4.49023017       4.17504591
H        3.96392828      -5.51507511       3.87847360
C        3.36843768      -3.53032888       3.35495463
C        2.48437915      -4.03898665       2.39443679
C        1.70412371      -3.17954739       1.62111872
C        1.79695539      -1.79695539       1.79695539
C        2.67063526      -1.25706299       2.75183198
C        3.44550886      -2.13727141       3.52881522
C        2.80308379       0.22428760       2.97086518
N        3.85785467      -4.41645425       5.60362665
C        6.17861216      -4.70133384       2.51395504
C        6.64441844      -3.73590552       1.61173872
C        6.99652948      -4.09171465       0.30987737
C        6.88921788      -5.41975870      -0.10930402
C        6.43202348      -6.41034751       0.77242509
C        6.08441672      -6.03653139       2.08277317
C        6.29638333      -7.84983971       0.36015965
Br       7.37899144      -5.81365254      -1.90139123
H        7.54877672      -5.09363522       4.55090799
H        6.22068837      -5.86555884       5.13521946
H        2.39990364      -5.11240521       2.23485667
H        1.02820106      -3.59948865       0.88071490
H        4.12189047      -1.72966213       4.27840114
H        3.55218441       0.45149012       3.73695340
H        1.85158280       0.64747545       3.30800892
H        3.12302536       0.72103764       2.04917749
H        2.86539517      -4.20574775       5.68933587
H        4.37213118      -3.64953688       6.03349450
H        6.72781017      -2.69332187       1.91245993
H        7.34901565      -3.32227649      -0.37208702
H        5.72880255      -6.79689233       2.77665476
H        5.93003394      -8.47089501       1.18476640
H        7.26663434      -8.25425413       0.05462526
H        5.57999074      -7.94602512      -0.46215384
C       -0.00445707       0.01189536      -1.78238275
H       -0.66409135       0.67374010      -2.43557963
H        0.65740317      -0.63156657      -2.45157240
C       -0.90989263      -0.90692880      -0.91072765
C        0.90977584       0.90977584      -0.90977584
C       -0.00465871       1.77757030       0.00794375
H       -0.66225468       2.44313916      -0.64384735
H        0.64322798       2.43503045       0.67728295
C       -1.78241447       0.00034974      -0.00472694
H       -2.45427497      -0.65498947       0.64260836
H       -2.43311707       0.67328779      -0.65473579
C       -0.91132561       0.90220522       0.91563759
C       -0.01476271      -0.02253852       1.78660255
H       -0.67934791      -0.69751639       2.42135241
H        0.63392994       0.61504881       2.47327442
C        0.01484550      -1.77751727      -0.01636693
H        0.67870853      -2.42144646      -0.68295456
H       -0.62264859      -2.45592969       0.64226336
C        1.78714474       0.01002794       0.00389507
H        2.44202412       0.67113390       0.66197326
H        2.45385902      -0.65136977      -0.64189061
C        0.91606151      -0.90478549       0.90901405
