170
Properties=species:S:1:pos:R:3 pbc="F F F"
N        5.52931027       4.63008026      -3.66293745
C        4.28490805       4.26570459      -4.33566558
H        4.56550678       3.66961232      -5.21291204
C        3.41426100       3.40684691      -3.43257778
C        3.10030447       2.08610505      -3.80227519
C        2.29298430       1.28327622      -2.98870853
C        1.79185220       1.79185220      -1.79185220
C        2.09710962       3.09545989      -1.41314897
C        2.89810162       3.90025024      -2.22044956
F        1.62471427       3.60663206      -0.26650377
C        3.59340511       5.44753429      -4.79418451
C        3.02345813       6.42161111      -5.17208976
C        2.25306344       7.65910579      -5.64221618
C        1.63323435       8.62156249      -6.00287519
C        0.87702374       9.80361243      -6.44113877
H        1.60018463      10.59967353      -6.65711957
C       -0.09243589      10.29534489      -5.37865332
C       -1.11518281       9.47236828      -4.86812149
C       -2.00688595       9.94911721      -3.90077121
C       -1.88535273      11.25520253      -3.43010950
C       -0.87744244      12.07682047      -3.92540457
C        0.01177305      11.60858122      -4.89127117
F       -0.74014559      13.33692494      -3.48725400
N        0.17960816       9.51005647      -7.68991819
H        5.31641838       5.23963963      -2.87645892
H        6.09231378       5.18777741      -4.30255611
H        3.48611161       1.66994340      -4.73165346
H        2.06452989       0.26639833      -3.29795631
H        3.11065748       4.91386091      -1.89267348
H       -1.22144236       8.44651086      -5.21821746
H       -2.78768107       9.29384634      -3.52205290
H        0.78436467      12.28241388      -5.25277410
H       -0.38265147      10.31859973      -7.94788332
H       -0.47456048       8.74661099      -7.53570098
C       -2.80669207      11.74039203      -2.43546133
C       -3.57831376      12.14673823      -1.60244349
Br      -4.82596078      12.80376567      -0.25552409
N       -4.24929499      -5.66686807      -3.90616492
C       -4.33281515      -4.26066451      -4.29279856
H       -5.37181877      -3.95058860      -4.12562377
C       -3.43169438      -3.40528490      -3.41670640
C       -3.98741236      -2.41346156      -2.58781079
C       -3.17355814      -1.61012429      -1.78128662
C       -1.79185220      -1.79185220      -1.79185220
C       -1.22971065      -2.77110725      -2.60490057
C       -2.03480166      -3.57199065      -3.41200912
F        0.09758597      -2.96285455      -2.63258152
C       -4.03430649      -4.10393041      -5.69688700
C       -3.78826199      -3.97474946      -6.85414754
C       -3.44564592      -3.77516617      -8.33357333
C       -3.16534143      -3.60428170      -9.48804889
C       -2.81956029      -3.39999657     -10.90221808
H       -3.09971431      -4.30952771     -11.44773571
C       -1.33455150      -3.14463019     -11.10238063
C       -0.67720101      -2.06205121     -10.48605474
C        0.68780216      -1.83567680     -10.69512783
C        1.41332361      -2.69112331     -11.52215960
C        0.77518489      -3.76531505     -12.13465244
C       -0.58486548      -3.99406510     -11.93269486
F        1.45251522      -4.60250578     -12.93404279
N       -3.61703390      -2.30844906     -11.45409986
H       -3.31341706      -6.01226187      -4.10683800
H       -4.87750798      -6.20439790      -4.50074142
H       -5.06513802      -2.25960534      -2.56296512
H       -3.62808585      -0.85012798      -1.15067071
H       -1.55840283      -4.32280902      -4.03598002
H       -1.22572453      -1.38705015      -9.83051127
H        1.17238359      -0.99322051     -10.20738125
H       -1.04573173      -4.84359035     -12.43023057
H       -3.32466065      -2.14389299     -12.41527793
H       -3.41078145      -1.45299572     -10.94397433
C        2.81744300      -2.45229248     -11.73431181
C        3.99339299      -2.25227166     -11.91198929
Br       5.89480467      -1.92885491     -12.19927875
N       -3.88289856       5.66072708       4.27870234
C       -4.33708460       4.27235349       4.27684013
H       -5.34136161       4.27147393       3.83519560
C       -3.43317193       3.40963086       3.41088289
C       -3.94880570       2.77268645       2.26719256
C       -3.13470365       1.96734905       1.46291634
C       -1.79185220       1.79185220       1.79185220
C       -1.26865363       2.41841441       2.91865045
C       -2.07508208       3.21911830       3.72460104
F        0.02033228       2.26263689       3.25554549
C       -4.43642938       3.77124162       5.62745291
C       -4.51829925       3.35821898       6.74064076
C       -4.60316729       2.79055212       8.16066600
C       -4.66012400       2.32998539       9.26756263
C       -4.72659862       1.76998590      10.62519042
H       -4.94857067       2.59411949      11.31428757
C       -3.41977740       1.11686191      11.04492302
C       -2.85684904       0.04837683      10.32008108
C       -1.66025554      -0.54901324      10.73176018
C       -1.01021354      -0.08342982      11.87317557
C       -1.55563483       0.97305887      12.59608890
C       -2.74884407       1.57005324      12.19272814
F       -0.94796499       1.43886611      13.69720225
N       -5.83650427       0.82572481      10.71735375
H       -2.97774986       5.71424711       4.74051995
H       -4.52064489       6.20965128       4.85235114
H       -4.99446788       2.90138313       1.99185746
H       -3.55815148       1.48556534       0.58516771
H       -1.63105984       3.68804750       4.59808453
H       -3.34632478      -0.32440458       9.42136576
H       -1.24571159      -1.37214822      10.15465480
H       -3.14196141       2.39201801      12.78557323
H       -5.83241587       0.40639354      11.64502216
H       -5.68272390       0.06432623      10.06070136
C        0.22021723      -0.70302012      12.29239864
C        1.25070299      -1.22192701      12.64349796
Br       2.91691132      -2.06095555      13.21119586
N        5.50250057      -4.67988939       3.63993802
C        4.28678730      -4.26438113       4.33510979
H        4.60662525      -3.65319613       5.18820976
C        3.41495192      -3.40636966       3.43236411
C        3.14601595      -2.06833578       3.77433298
C        2.33840845      -1.26566830       2.96089229
C        1.79185220      -1.79185220       1.79185220
C        2.05230296      -3.11276601       1.44064950
C        2.85336560      -3.91738746       2.24804836
F        1.53575315      -3.64099903       0.32109792
C        3.57704979      -5.41457841       4.84349570
C        2.99207339      -6.36258366       5.26250195
C        2.20234803      -7.56596583       5.78607155
C        1.56736457      -8.50146391       6.18884354
C        0.79241169      -9.65066407       6.67869919
H        1.49992917     -10.46003431       6.89701425
C       -0.21805859     -10.14380492       5.65581599
C       -1.23220911      -9.30719202       5.15032404
C       -2.16200954      -9.78495768       4.22005433
C       -2.08770534     -11.10579883       3.78186581
C       -1.08875734     -11.94105397       4.27248597
C       -0.16170711     -11.47176371       5.20156884
F       -0.99660977     -13.21551712       3.86512600
N        0.13701561      -9.30554949       7.93701773
H        5.25242234      -5.30397266       2.87612194
H        6.06771688      -5.23557198       4.27935845
H        3.56765772      -1.63842634       4.68162441
H        2.14527303      -0.23518758       3.24842393
H        3.03019856      -4.94466123       1.94233208
H       -1.30189504      -8.26996834       5.47521266
H       -2.93523235      -9.11900496       3.84444556
H        0.60236327     -12.15649653       5.56069285
H       -0.43916338     -10.09150695       8.23148800
H       -0.50074691      -8.52901125       7.77948716
C       -3.04808179     -11.59191628       2.82532680
C       -3.85239707     -11.99903965       2.02422537
Br      -5.15290685     -12.65732371       0.72891212
C       -0.00445707       0.01189536      -1.78238275
H       -0.66409135       0.67374010      -2.43557963
H        0.65740317      -0.63156657      -2.45157240
C       -0.90989263      -0.90692880      -0.91072765
C        0.90977584       0.90977584      -0.90977584
C       -0.00465871       1.77757030       0.00794375
H       -0.66225468       2.44313916      -0.64384735
H        0.64322798       2.43503045       0.67728295
C       -1.78241447       0.00034974      -0.00472694
H       -2.45427497      -0.65498947       0.64260836
H       -2.43311707       0.67328779      -0.65473579
C       -0.91132561       0.90220522       0.91563759
C       -0.01476271      -0.02253852       1.78660255
H       -0.67934791      -0.69751639       2.42135241
H        0.63392994       0.61504881       2.47327442
C        0.01484550      -1.77751727      -0.01636693
H        0.67870853      -2.42144646      -0.68295456
H       -0.62264859      -2.45592969       0.64226336
C        1.78714474       0.01002794       0.00389507
H        2.44202412       0.67113390       0.66197326
H        2.45385902      -0.65136977      -0.64189061
C        0.91606151      -0.90478549       0.90901405
