125
Properties=species:S:1:pos:R:3 pbc="F F F"
C        0.00000000       0.00000000       0.00000000
C        0.88150185       0.88150185      -0.88150185
C        2.01168543       1.49183291      -0.33989292
C        2.81766990       2.30390964      -1.14376277
C        2.50047214       2.51100020      -2.49586478
C        1.35761642       1.88355591      -3.00856836
C        0.54844911       1.07350765      -2.21747172
F        1.01050004       2.07199407      -4.28974278
C        3.38234261       3.39573082      -3.35792283
H        4.19249340       3.78968046      -2.73174972
C        4.03382939       2.63498537      -4.57998086
H        3.22640465       2.17965057      -5.16677588
C        4.99231435       1.53486427      -4.16728220
C        4.71675008       0.19814114      -4.49918753
C        5.58968835      -0.82506299      -4.11855582
C        6.74875513      -0.51924841      -3.40745978
C        7.04266150       0.79740925      -3.07024976
C        6.16386915       1.80766218      -3.45001388
F        6.46264760       3.07089440      -3.11283835
Br       7.93039242      -1.90406629      -2.89930239
N        4.68606257       3.58141676      -5.51284268
N        2.63762689       4.59229940      -3.81825318
H        2.27408603       1.34375517       0.70519365
H        3.69753461       2.77192611      -0.70484635
H       -0.32991996       0.61013562      -2.65468581
H        3.81968168      -0.05474646      -5.06194797
H        5.35804357      -1.85308441      -4.38668139
H        7.94286104       1.05408969      -2.52222914
H        4.03733874       4.37188917      -5.59781393
H        5.48643433       3.99259392      -5.02934387
H        2.21280489       5.04274372      -3.00825647
H        1.86007254       4.27846246      -4.40274439
C       -0.88150185      -0.88150185      -0.88150185
C       -0.84315377      -2.26703490      -0.73322258
C       -1.64554396      -3.07683243      -1.54296591
C       -2.49350177      -2.50736032      -2.50647504
C       -2.50764098      -1.11194829      -2.63015143
C       -1.71314244      -0.29665990      -1.82962614
F       -3.28948590      -0.53124014      -3.55151085
C       -3.35869570      -3.39692131      -3.38037925
H       -3.15535928      -4.44219093      -3.11637337
C       -4.90738758      -3.13930901      -3.20209903
H       -5.10001609      -2.07681659      -3.39599842
C       -5.41919887      -3.46326441      -1.81199754
C       -5.96015819      -2.44855933      -1.00536122
C       -6.42916134      -2.73409727       0.28007743
C       -6.36623075      -4.03831884       0.76758309
C       -5.83682144      -5.05892073      -0.01457833
C       -5.36816086      -4.76229569      -1.29108865
F       -4.85804831      -5.75914293      -2.02918912
Br      -7.00665552      -4.42272894       2.50375595
N       -5.69089259      -3.85567740      -4.23375203
N       -2.96511467      -3.27816046      -4.80490434
H       -0.19288635      -2.72712010       0.00735890
H       -1.60417495      -4.15721433      -1.41291779
H       -1.75247282       0.77959559      -1.96202424
H       -6.02382088      -1.42688241      -1.37617989
H       -6.84524658      -1.93398673       0.88759276
H       -5.78532829      -6.08043135       0.34657977
H       -5.17530699      -3.72107712      -5.11065773
H       -5.59073307      -4.85733441      -4.06030462
H       -1.95909987      -3.42666670      -4.87803851
H       -3.12699029      -2.31334411      -5.10094499
C       -0.88150185       0.88150185       0.88150185
C       -0.49539195       2.19263335       1.15538596
C       -1.29828024       3.00028638       1.96677569
C       -2.49420545       2.50352197       2.50960970
C       -2.85281400       1.18160476       2.21532194
C       -2.06117120       0.36909512       1.40916216
F       -3.97743338       0.66448328       2.73032023
C       -3.35653162       3.38946095       3.39000368
H       -2.85864374       4.36156429       3.49371556
C       -4.80300985       3.64012868       2.80565709
H       -5.27434175       2.66442663       2.63406272
C       -4.80277246       4.39888112       1.49280724
C       -5.29638523       3.79093843       0.32675508
C       -5.29529953       4.47826591      -0.89038426
C       -4.80558441       5.78179628      -0.95041419
C       -4.31428729       6.40401678       0.19201644
C       -4.31555114       5.70845101       1.39754305
F       -3.83465233       6.32395358       2.48777444
Br      -4.81087942       6.71099711      -2.59624801
N       -5.67364672       4.30612571       3.80054959
N       -3.43131544       2.84845486       4.76840916
H        0.42739859       2.59571731       0.74432882
H       -0.98233643       4.02251375       2.16945690
H       -2.37498690      -0.65040674       1.21032132
H       -5.69015378       2.77644102       0.36028838
H       -5.68308353       3.98951905      -1.78096202
H       -3.93469342       7.41976006       0.16472640
H       -5.47897297       3.83629873       4.69177014
H       -5.30781389       5.24759798       3.95296023
H       -2.48345067       2.67755771       5.10279670
H       -3.88210398       1.93204895       4.72712647
C        0.88150185      -0.88150185       0.88150185
C        2.26835923      -0.75494656       0.82010546
C        3.07804469      -1.56480109       1.62249653
C        2.50716241      -2.50668326       2.49349145
C        1.11042869      -2.60885414       2.53045786
C        0.29523552      -1.80801341       1.73617955
F        0.52793812      -3.50941741       3.33488136
C        3.39658708      -3.38095682       3.35845235
H        4.44248170      -3.13599259       3.13544929
C        3.16531063      -3.17554507       4.90793992
H        2.10308630      -3.35031713       5.11942768
C        3.51785751      -1.78301596       5.39358735
C        2.52373633      -0.95298088       5.93736153
C        2.83565113       0.33485222       6.38238227
C        4.14593295       0.80142642       6.29245998
C        5.14649298      -0.00405586       5.75977166
C        4.82363284      -1.28278858       5.31512379
F        5.80139910      -2.04356834       4.80141292
Br       4.56607533       2.54095697       6.90051016
N        3.87796957      -4.20611820       5.69623425
N        3.25047283      -4.80925397       2.98845266
H        2.72954603      -0.03130664       0.15179488
H        4.15950105      -1.45186786       1.56293817
H       -0.78216171      -1.92338957       1.79367361
H        1.49769719      -1.30718956       6.02199644
H        2.05118353       0.96066722       6.80112424
H        6.17240630       0.34067966       5.68745323
H        3.72238026      -5.08851121       5.19615037
H        4.88047457      -4.04947837       5.57841917
H        3.38251646      -4.89973522       1.98155340
H        2.28390040      -5.08809403       3.16928496
