154
Properties=species:S:1:pos:R:3 pbc="F F F"
C        1.79140587       1.79140587      -1.79140587
C        2.92158946       2.40173693      -1.24979694
C        3.72757393       3.21381366      -2.05366679
C        3.41037617       3.42090423      -3.40576881
C        2.26752044       2.79345993      -3.91847238
C        1.45835313       1.98341168      -3.12737574
F        1.92040406       2.98189809      -5.19964681
C        4.29224663       4.30563484      -4.26782685
H        5.10239743       4.69958449      -3.64165375
C        4.94373341       3.54488939      -5.48988489
H        4.13630868       3.08955459      -6.07667990
C        5.90221837       2.44476829      -5.07718623
C        5.62665410       1.10804516      -5.40909155
C        6.49959237       0.08484104      -5.02845984
C        7.65865915       0.39065562      -4.31736381
C        7.95256552       1.70731327      -3.98015379
C        7.07377317       2.71756620      -4.35991790
F        7.37255163       3.98079842      -4.02274238
N        5.59596660       4.49132079      -6.42274671
N        3.54753091       5.50220342      -4.72815720
H        3.18399006       2.25365919      -0.20471037
H        4.60743864       3.68183014      -1.61475038
H        0.57998407       1.52003964      -3.56458983
H        4.72958571       0.85515756      -5.97185199
H        6.26794759      -0.94318038      -5.29658542
H        8.85276506       1.96399372      -3.43213317
H        4.94724277       5.28179319      -6.50771795
H        6.39633835       4.90249794      -5.93924789
H        3.12270892       5.95264774      -3.91816049
H        2.76997656       5.18836648      -5.31264842
C        8.55894022      -0.66442730      -3.93020230
C        9.31292561      -1.54805925      -3.60595454
Br      10.53205622      -2.97681737      -3.08167333
C       -1.79140587      -1.79140587      -1.79140587
C       -3.16178058      -1.54671929      -1.86462345
C       -3.97207854      -2.35592145      -2.66705440
C       -3.41814331      -3.41537049      -3.40353540
C       -2.03778915      -3.63448038      -3.30718323
C       -1.22216423      -2.83540089      -2.51157543
F       -1.47409499      -4.64792308      -3.97993090
C       -4.30821909      -4.28757188      -4.26991735
H       -5.34280800      -3.93884739      -4.16198027
C       -3.93340785      -4.24092846      -5.80417138
H       -2.87728694      -4.52028724      -5.90496900
C       -4.11928072      -2.87313289      -6.43175928
C       -3.01385382      -2.17916861      -6.95076839
C       -3.17206680      -0.91499918      -7.52582727
C       -4.43841458      -0.33652307      -7.59174093
C       -5.54713330      -1.00657761      -7.08632167
C       -5.37721272      -2.26264337      -6.51140118
F       -6.45776096      -2.89188543      -6.02644604
N       -4.66825072      -5.27591171      -6.56587166
N       -4.32097981      -5.68428858      -3.77262314
H       -3.60970974      -0.73098167      -1.30166821
H       -5.04036690      -2.14993285      -2.71371940
H       -0.15829222      -3.04329773      -2.46302360
H       -2.02005807      -2.62235548      -6.91418171
H       -2.30321902      -0.39541949      -7.92271411
H       -6.54064106      -0.57390386      -7.13434703
H       -4.63353018      -6.11990894      -5.98331479
H       -5.65903895      -5.02780423      -6.55124099
H       -4.54259218      -5.67340889      -2.77751607
H       -3.37160656      -6.05637863      -3.84300628
C       -4.59991374       0.96391475      -8.18871622
C       -4.73516929       2.05303142      -8.68868303
Br      -4.95386608       3.81404097      -9.49708707
C       -1.79140587       1.79140587       1.79140587
C       -1.53275543       1.88220897       3.15815893
C       -2.34187187       2.68465266       3.96852985
C       -3.41521142       3.40356705       3.41827073
C       -3.64814347       3.28979927       2.04151002
C       -2.84928045       2.49401052       1.22584958
F       -4.67489199       3.94537793       1.48167904
C       -4.28715638       4.27014472       4.30840722
H       -3.92612800       4.17727350       5.34023416
C       -4.26130533       5.80063169       3.91657068
H       -4.55313067       5.88687807       2.86253443
C       -2.89851260       6.44493761       4.08072268
C       -2.22222511       6.95931411       2.96225160
C       -0.96277170       7.54967687       3.10044469
C       -0.37141419       7.63564466       4.35961972
C       -1.02390751       7.13515041       5.48097466
C       -2.27538609       6.54488576       5.33098542
F       -2.88759911       6.06498635       6.42350697
N       -5.29654628       6.55908914       4.65439867
N       -5.67814453       3.75797239       4.34177462
H       -0.70613625       1.33301262       3.60321075
H       -2.12488580       2.74519235       5.03394101
H       -3.06810628       2.43161182       0.16489544
H       -2.67568742       6.90710412       1.97380372
H       -0.45696210       7.94264467       2.22174586
H       -0.58108500       7.19868112       6.46912583
H       -6.13446221       5.96711206       4.63517964
H       -5.03761397       6.55794935       5.64252086
H       -5.65401583       2.76551813       4.57398320
H       -6.06120613       3.81397174       3.39581360
C        0.92409967       8.24834858       4.50046630
C        2.00909252       8.76148811       4.61842532
Br       3.76343421       9.59119132       4.80915506
C        1.79140587      -1.79140587       1.79140587
C        1.62830928      -1.76918816       3.17562588
C        2.43797466      -2.57157974       3.98549999
C        3.41623331      -3.40341653       3.41739936
C        3.55457782      -3.40158028       2.02329465
C        2.75426971      -2.60692572       1.20794512
F        4.49011261      -4.16763217       1.44420417
C        4.28988279      -4.26877619       4.30704935
H        4.01287963      -4.07921244       5.35154359
C        4.13060410      -5.81644385       4.03145975
H        4.33757514      -5.99584975       2.96911829
C        2.74266757      -6.34608602       4.33541929
C        1.95238085      -6.88470783       3.30670214
C        0.66904527      -7.37005221       3.57379578
C        0.16734759      -7.32593190       4.87339909
C        0.93322224      -6.79917580       5.90763453
C        2.20774955      -6.31415026       5.62935747
F        2.93001857      -5.80689768       6.63917618
N        5.16292911      -6.59665788       4.75044710
N        5.71134639      -3.85915234       4.20739281
H        0.87617364      -1.13154712       3.63463886
H        2.29625350      -2.54294003       5.06482563
H        2.89827618      -2.63354597       0.13279140
H        2.33446940      -6.93374904       2.28837682
H        0.07430853      -7.78399830       2.76304580
H        0.56092301      -6.76220043       6.92576850
H        6.03571429      -6.07057945       4.63046016
H        4.97801459      -6.50885757       5.75121202
H        5.77233820      -2.85404908       4.36712987
H        6.01910656      -4.00777293       3.24411198
C       -1.15320024      -7.83067228       5.14724317
C       -2.25915904      -8.25339235       5.37658759
Br      -4.04740089      -8.93689495       5.74741812
C       -0.00445707       0.01189536      -1.78238275
H       -0.66409135       0.67374010      -2.43557963
H        0.65740317      -0.63156657      -2.45157240
C       -0.90989263      -0.90692880      -0.91072765
C        0.90977584       0.90977584      -0.90977584
C       -0.00465871       1.77757030       0.00794375
H       -0.66225468       2.44313916      -0.64384735
H        0.64322798       2.43503045       0.67728295
C       -1.78241447       0.00034974      -0.00472694
H       -2.45427497      -0.65498947       0.64260836
H       -2.43311707       0.67328779      -0.65473579
C       -0.91132561       0.90220522       0.91563759
C       -0.01476271      -0.02253852       1.78660255
H       -0.67934791      -0.69751639       2.42135241
H        0.63392994       0.61504881       2.47327442
C        0.01484550      -1.77751727      -0.01636693
H        0.67870853      -2.42144646      -0.68295456
H       -0.62264859      -2.45592969       0.64226336
C        1.78714474       0.01002794       0.00389507
H        2.44202412       0.67113390       0.66197326
H        2.45385902      -0.65136977      -0.64189061
C        0.91606151      -0.90478549       0.90901405
