162
Properties=species:S:1:pos:R:3 pbc="F F F"
C        1.79154167       1.79154167      -1.79154167
C        1.52282904       1.89514051      -3.15528548
C        2.32750107       2.70420929      -3.96359112
C        3.40673228       3.42095890      -3.41443644
C        3.65347522       3.28616922      -2.04206835
C        2.85805852       2.48343978      -1.22859190
F        4.68212323       3.93674270      -1.47863383
C        4.29713785       4.31065308      -4.25612127
H        5.00458236       4.82942959      -3.59838571
C        5.05054935       3.56614635      -5.23755426
C        5.67152472       2.95250524      -6.04646035
C        6.44576325       2.13830149      -7.08434866
C        7.03344410       1.47304195      -7.89482493
C        7.72707516       0.63639000      -8.88497476
H        7.43867784       0.99102141      -9.88148665
C        7.35487734      -0.82506968      -8.73691198
C        7.59102116      -1.53850007      -7.54698012
C        7.22533678      -2.88342980      -7.43744972
C        6.61937983      -3.52721790      -8.51504991
C        6.37552743      -2.84136240      -9.69998029
C        6.74356117      -1.50228300      -9.79917930
F        6.49858138      -0.85953929     -10.94998224
Br       6.12183131      -5.34404595      -8.36289904
N        9.17094117       0.83485574      -8.76435752
N        3.51618875       5.35696651      -4.92174850
H        0.69069172       1.35399143      -3.59907223
H        2.10525768       2.77354236      -5.02621001
H        3.08388851       2.41301230      -0.16967810
H        8.05041090      -1.04659010      -6.69131958
H        7.41223231      -3.41551881      -6.50749249
H        5.90239249      -3.32620707     -10.54780226
H        9.63960687       0.23040845      -9.43599359
H        9.47741386       0.53744720      -7.84181618
H        2.93688109       4.93210330      -5.64188352
H        4.16179568       5.97312490      -5.41297352
C       -1.79154167      -1.79154167      -1.79154167
C       -2.14954960      -1.35708844      -3.06661700
C       -2.95456848      -2.16439886      -3.87633413
C       -3.40602702      -3.41646000      -3.41964061
C       -3.03477572      -3.81725125      -2.12968582
C       -2.23336388      -3.02097618      -1.31575016
F       -3.45660106      -4.99492246      -1.64597624
C       -4.27467295      -4.32057793      -4.26866132
H       -4.42196801      -5.27003250      -3.74039715
C       -5.57092194      -3.74449255      -4.53883547
C       -6.63931138      -3.26967074      -4.76150818
C       -7.99904439      -2.62764857      -5.04172044
C       -9.05524283      -2.09384634      -5.25222180
C      -10.33210471      -1.41058060      -5.50575461
H      -10.43419139      -1.28670930      -6.59028520
C      -10.38094720      -0.05446198      -4.83131046
C      -10.25300302       0.09082256      -3.43732075
C      -10.29047870       1.35710648      -2.84598448
C      -10.45476539       2.48950219      -3.64194864
C      -10.58205746       2.36946570      -5.02155356
C      -10.54362199       1.10401847      -5.60085394
F      -10.66723978       1.01080183      -6.93258638
Br     -10.50050432       4.20046247      -2.84064254
N      -11.43637387      -2.26434031      -5.06944026
N       -3.60923064      -4.65479116      -5.53088196
H       -1.80725836      -0.39540064      -3.44109639
H       -3.22602871      -1.81047512      -4.86850622
H       -1.96691875      -3.37450633      -0.32515383
H      -10.10987217      -0.78227902      -2.80298919
H      -10.18498073       1.44812341      -1.76734867
H      -10.70799328       3.24050753      -5.65650192
H      -12.31179273      -1.76891344      -5.22530274
H      -11.36606642      -2.42286281      -4.06774800
H       -3.57048421      -3.82393892      -6.11644479
H       -4.19387608      -5.32092793      -6.03309011
C       -1.79154167       1.79154167       1.79154167
C       -1.84409305       3.16558867       1.56357331
C       -2.65304466       3.97403155       2.36822526
C       -3.42070558       3.41488457       3.40653747
C       -3.33655824       2.03190457       3.61324997
C       -2.53439672       1.21821182       2.81748167
F       -4.03693157       1.45794203       4.60262616
C       -4.31191292       4.25659512       4.29540417
H       -4.87325691       3.59417400       4.96496675
C       -3.56181895       5.18980951       5.10262149
C       -2.94357302       5.95897281       5.76794448
C       -2.12276614       6.94570677       6.59994049
C       -1.45183771       7.71581846       7.23365481
C       -0.60750437       8.65664457       7.98429098
H       -0.92160780       9.67247913       7.71709896
C        0.85982875       8.47345994       7.65308844
C        1.52804370       7.25452460       7.87302032
C        2.87995038       7.11336528       7.54594180
C        3.57596393       8.18807728       6.99509849
C        2.93538812       9.40137196       6.76816147
C        1.58892996       9.53194980       7.09743763
F        0.99039972      10.70980477       6.86961928
Br       5.40220080       7.99331434       6.54957086
N       -0.85577669       8.49768371       9.41669405
N       -5.31150069       4.97932555       3.50407751
H       -1.26304542       3.61742806       0.76328190
H       -2.68220111       5.04471304       2.17809590
H       -2.50414683       0.15108534       3.01134675
H        0.99534265       6.40121520       8.28926783
H        3.37665282       6.16148452       7.71937428
H        3.46122795      10.24750364       6.33771199
H       -0.24609690       9.13473639       9.92517561
H       -0.59712197       7.55701829       9.70253699
H       -4.84614477       5.70311509       2.96160804
H       -5.93248093       5.46976078       4.14565240
C        1.79154167      -1.79154167       1.79154167
C        2.13142438      -3.07487453       1.36695612
C        2.94094874      -3.88253905       2.17181369
C        3.42182814      -3.41244189       3.40785760
C        3.05292805      -2.12141593       3.80736880
C        2.24764760      -1.30924274       3.01319987
F        3.47335662      -1.63834270       4.98580044
C        4.30426534      -4.25517955       4.30446732
H        4.62302475      -3.64879919       5.16057371
C        3.62332441      -5.42612703       4.80479851
C        3.06207419      -6.39123525       5.21718087
C        2.31853832      -7.62966024       5.72021484
C        1.71123414      -8.59802448       6.09205236
C        0.94900860      -9.78053006       6.51890127
H        1.48271843     -10.66842065       6.16004682
C       -0.45752325      -9.76912915       5.95511374
C       -1.36505500      -8.73030598       6.23425023
C       -2.65244778      -8.74255675       5.68924773
C       -3.04423854      -9.79186012       4.85959026
C       -2.16348594     -10.82820153       4.56942974
C       -0.88367428     -10.80693144       5.11720031
F       -0.05013050     -11.81523394       4.82392089
Br      -4.78350618      -9.80377199       4.12041859
N        0.93855041      -9.85206610       7.97953793
N        5.53043318      -4.65561549       3.60885509
H        1.77495441      -3.45581350       0.41298747
H        3.19628324      -4.88205774       1.82666908
H        1.99132868      -0.31403310       3.36121715
H       -1.07004227      -7.89636383       6.86881882
H       -3.33703703      -7.92774486       5.91349816
H       -2.45096223     -11.65149326       3.92345665
H        0.38555394     -10.65868977       8.26176519
H        0.46963323      -9.03197352       8.35507050
H        5.29645135      -5.33012417       2.88429240
H        6.12413254      -5.15369883       4.27006275
C       -0.00445707       0.01189536      -1.78238275
H       -0.66409135       0.67374010      -2.43557963
H        0.65740317      -0.63156657      -2.45157240
C       -0.90989263      -0.90692880      -0.91072765
C        0.90977584       0.90977584      -0.90977584
C       -0.00465871       1.77757030       0.00794375
H       -0.66225468       2.44313916      -0.64384735
H        0.64322798       2.43503045       0.67728295
C       -1.78241447       0.00034974      -0.00472694
H       -2.45427497      -0.65498947       0.64260836
H       -2.43311707       0.67328779      -0.65473579
C       -0.91132561       0.90220522       0.91563759
C       -0.01476271      -0.02253852       1.78660255
H       -0.67934791      -0.69751639       2.42135241
H        0.63392994       0.61504881       2.47327442
C        0.01484550      -1.77751727      -0.01636693
H        0.67870853      -2.42144646      -0.68295456
H       -0.62264859      -2.45592969       0.64226336
C        1.78714474       0.01002794       0.00389507
H        2.44202412       0.67113390       0.66197326
H        2.45385902      -0.65136977      -0.64189061
C        0.91606151      -0.90478549       0.90901405
