186
Properties=species:S:1:pos:R:3 pbc="F F F"
C        1.76660254       1.76660254      -1.76660254
H        1.64254851       2.82916197      -1.61914622
C        2.69614519       1.19427396      -2.69636257
H        2.74087601       0.10612877      -2.72020820
C        3.62601648       1.89092492      -3.59659601
C        4.51285765       1.13598054      -4.37367765
C        5.43704365       1.75497609      -5.22417433
C        5.50718791       3.15085303      -5.30623356
C        4.58784032       3.90405000      -4.55820885
C        3.66398731       3.28299654      -3.71081447
C        6.53159519       3.87658886      -6.16567125
H        6.65910802       4.88949583      -5.75928066
C        7.97707273       3.22933378      -6.22596387
H        7.86270314       2.20572921      -6.60561595
C        8.75849697       3.11866563      -4.92123412
C        9.96514844       2.39793343      -4.91741052
C       10.70609468       2.22384798      -3.74271238
C       10.26095578       2.75985629      -2.53030462
C        9.07107702       3.49245929      -2.52901269
C        8.33641139       3.67644519      -3.70822573
C       11.05482191       2.53775393      -1.31300312
H       11.97287649       1.96951007      -1.44461714
C       10.75987202       2.96491099       0.02459543
H        9.87885621       3.52828240       0.29664579
N        8.79238609       3.93887021      -7.24286366
N        5.98897278       4.06020011      -7.53422681
H        4.50661158       0.04886390      -4.31961662
H        6.10727430       1.12204974      -5.80010392
H        4.59702352       4.99168742      -4.61308638
H        2.98724805       3.91322290      -3.14146197
H       10.33832663       1.96750117      -5.84588268
H       11.63406132       1.65841880      -3.79368907
H        8.68291956       3.93085551      -1.61619712
H        7.42288475       4.25795836      -3.63673430
H        8.14560578       4.14691378      -8.01261071
H        9.02939670       4.85636506      -6.86656615
H        5.06736719       4.49244364      -7.45766610
H        5.82008308       3.13657257      -7.93553127
C       11.64377076       2.64653930       1.11590770
C       12.38403596       2.37990301       2.02988173
Br      13.58098218       1.94877468       3.50770043
C       -1.76660254      -1.76660254      -1.76660254
H       -2.74672827      -1.36576055      -1.97836789
C       -1.29041201      -3.01894832      -2.27742139
H       -0.26891681      -3.28747005      -2.01082611
C       -1.99372035      -3.97117312      -3.14864394
C       -1.31320631      -5.10792931      -3.60138022
C       -1.93118305      -6.02869447      -4.45631654
C       -3.24557199      -5.82522612      -4.89347639
C       -3.93953294      -4.70698155      -4.40358468
C       -3.32042324      -3.78965509      -3.54771999
C       -3.94442575      -6.75937140      -5.87005815
H       -4.75185601      -6.19695427      -6.35907423
C       -3.04489819      -7.35779261      -7.02967958
H       -2.21717762      -7.90114351      -6.55572717
C       -2.40974103      -6.37813805      -8.01051765
C       -1.47486258      -6.86574984      -8.93987998
C       -0.82528861      -6.01014639      -9.83722004
C       -1.08463935      -4.63607330      -9.83040404
C       -2.02560039      -4.14579913      -8.92114948
C       -2.68435101      -5.00525289      -8.03147840
C       -0.36687654      -3.76565836     -10.77304406
H        0.32552237      -4.26683707     -11.44568900
C       -0.45717960      -2.33965249     -10.90335549
H       -1.09791240      -1.71839332     -10.29418711
N       -3.81739767      -8.38451727      -7.77220502
N       -4.61435818      -7.84967151      -5.11937001
H       -0.28190555      -5.28909644      -3.30409010
H       -1.35533371      -6.89057282      -4.78352143
H       -4.97091790      -4.52728560      -4.70359382
H       -3.89697685      -2.93269864      -3.21225743
H       -1.25063823      -7.93131312      -8.96975914
H       -0.11091593      -6.43800488     -10.53724837
H       -2.26486135      -3.08900443      -8.87610640
H       -3.40495817      -4.55876266      -7.35385659
H       -4.36564236      -8.88003159      -7.05945630
H       -4.52038860      -7.90128722      -8.33065208
H       -5.19556692      -7.42824701      -4.39366301
H       -3.89796581      -8.37661614      -4.61760497
C        0.33491084      -1.63294394     -11.87636925
C        0.99828657      -1.04107554     -12.69126828
Br       2.07090904      -0.08407439     -14.00889108
C       -1.76660254       1.76660254       1.76660254
H       -1.81610781       2.80399688       1.47075203
C       -2.48016254       1.22189708       2.88472210
H       -2.36461552       0.15156161       3.05103585
C       -3.38021603       1.91857103       3.81475035
C       -4.04474936       1.17800656       4.79975992
C       -4.93429382       1.79201311       5.68988714
C       -5.19357198       3.16524741       5.60545511
C       -4.49323387       3.91235162       4.64451368
C       -3.60333129       3.29672929       3.75773774
C       -6.19572338       3.87274920       6.50538272
H       -6.51750958       4.79261957       5.99775536
C       -7.51401387       3.06476413       6.85359237
H       -7.20694477       2.12889953       7.33820400
C       -8.42880718       2.67051528       5.69907427
C       -9.51013529       1.81113703       5.95922007
C      -10.35976695       1.37841004       4.93447806
C      -10.15193833       1.78606678       3.61311157
C       -9.08942328       2.65425855       3.34886716
C       -8.24681419       3.09656560       4.37770251
C      -11.05195654       1.29344188       2.56018054
H      -11.85492973       0.63942081       2.89265317
C      -10.99160723       1.55740927       1.15117108
H      -10.24190516       2.18180857       0.68677910
N       -8.28883466       3.80523015       7.88005515
N       -5.51782830       4.31782830       7.74774310
H       -3.88908087       0.10387195       4.88213928
H       -5.42896954       1.16946828       6.43099015
H       -4.65175800       4.98674649       4.56329283
H       -3.10105340       3.91838576       3.02249376
H       -9.69811709       1.47531464       6.97827875
H      -11.18298828       0.71431386       5.18886705
H       -8.88591892       3.00202855       2.34202471
H       -7.44265324       3.77168940       4.10323477
H       -7.58731047       4.20125291       8.51656689
H       -8.70061333       4.62203526       7.42967932
H       -4.68490900       4.84670912       7.48585882
H       -5.16890087       3.49005527       8.23323078
C      -11.95035988       0.97710795       0.24693454
C      -12.75331523       0.49110559      -0.51036357
Br     -14.05162611      -0.29471911      -1.73485056
C        1.76660254      -1.76660254       1.76660254
H        1.42323627      -1.88391256       2.78370788
C        2.94533183      -2.39553015       1.24591974
H        3.15770060      -2.21699361       0.19251876
C        3.88524631      -3.28363887       1.94465222
C        4.93827054      -3.86009478       1.22415052
C        5.84189285      -4.73541713       1.83888409
C        5.70376581      -5.06891343       3.19159526
C        4.67258412      -4.45590127       3.92161378
C        3.77236532      -3.57997432       3.30545869
C        6.61838470      -6.06089397       3.89457663
H        6.08355972      -6.45411562       4.77020917
C        7.07319876      -7.31717242       3.04199919
H        7.58660779      -6.93893411       2.14850640
C        5.98803547      -8.26589433       2.54446693
C        6.34531936      -9.28747605       1.64769699
C        5.38813201     -10.16286228       1.12166075
C        4.03943426     -10.04128264       1.47039978
C        3.67859952      -9.03912116       2.37482831
C        4.63976235      -8.17103272       2.91028724
C        3.05965868     -10.96522326       0.88069702
H        3.46468885     -11.71618982       0.20612504
C        1.63817492     -10.98764108       1.07437157
H        1.10575417     -10.29474676       1.70999189
N        8.10070777      -8.07789745       3.79551474
N        7.80088142      -5.34678666       4.43573162
H        5.06503658      -3.64545389       0.16460163
H        6.63709685      -5.16047172       1.23185939
H        4.54710801      -4.67334725       4.98134206
H        2.98265743      -3.14700404       3.91227146
H        7.38793304      -9.40776724       1.35601020
H        5.71681259     -10.93733151       0.43202508
H        2.64678635      -8.90336373       2.67982210
H        4.29149549      -7.41712722       3.60895470
H        8.68007412      -7.36736983       4.25768631
H        7.63267360      -8.55277047       4.56688383
H        7.47084814      -4.55604589       4.99058290
H        8.30771346      -4.93232103       3.65215243
C        0.81403785     -11.95836773       0.40199679
C        0.12382305     -12.77135130      -0.16111710
Br      -0.99219591     -14.08587697      -1.07162463
C       -0.00445707       0.01189536      -1.78238275
H       -0.66409135       0.67374010      -2.43557963
H        0.65740317      -0.63156657      -2.45157240
C       -0.90989263      -0.90692880      -0.91072765
C        0.90977584       0.90977584      -0.90977584
C       -0.00465871       1.77757030       0.00794375
H       -0.66225468       2.44313916      -0.64384735
H        0.64322798       2.43503045       0.67728295
C       -1.78241447       0.00034974      -0.00472694
H       -2.45427497      -0.65498947       0.64260836
H       -2.43311707       0.67328779      -0.65473579
C       -0.91132561       0.90220522       0.91563759
C       -0.01476271      -0.02253852       1.78660255
H       -0.67934791      -0.69751639       2.42135241
H        0.63392994       0.61504881       2.47327442
C        0.01484550      -1.77751727      -0.01636693
H        0.67870853      -2.42144646      -0.68295456
H       -0.62264859      -2.45592969       0.64226336
C        1.78714474       0.01002794       0.00389507
H        2.44202412       0.67113390       0.66197326
H        2.45385902      -0.65136977      -0.64189061
C        0.91606151      -0.90478549       0.90901405
