165
Properties=species:S:1:pos:R:3 pbc="F F F"
C        0.00000000       0.00000000       0.00000000
C        0.85669851       0.85669851      -0.85669851
H        0.73264449       1.91925795      -0.70924220
C        1.78624116       0.28436993      -1.78645855
H        1.83097198      -0.80377525      -1.81030417
C        2.71611246       0.98102089      -2.68669199
C        3.60295362       0.22607652      -3.46377363
C        4.52713963       0.84507206      -4.31427030
C        4.59728389       2.24094901      -4.39632953
C        3.67793630       2.99414597      -3.64830483
C        2.75408329       2.37309252      -2.80091044
C        5.62169116       2.96668484      -5.25576723
H        5.74920400       3.97959181      -4.84937663
C        7.06716870       2.31942976      -5.31605984
H        6.95279912       1.29582519      -5.69571193
C        7.84859295       2.20876161      -4.01133010
C        9.05524442       1.48802940      -4.00750650
C        9.79619066       1.31394396      -2.83280836
C        9.35105176       1.84995226      -1.62040059
C        8.16117300       2.58255526      -1.61910866
C        7.42650737       2.76654116      -2.79832170
C       10.14491788       1.62784990      -0.40309910
H       11.06297247       1.05960605      -0.53471312
C        9.84996799       2.05500697       0.93449945
H        8.96895218       2.61837837       1.20654981
N        7.88248207       3.02896618      -6.33295964
N        5.07906876       3.15029609      -6.62432279
H        3.59670755      -0.86104012      -3.40971259
H        5.19737028       0.21214571      -4.89019990
H        3.68711950       4.08178340      -3.70318235
H        2.07734403       3.00331887      -2.23155795
H        9.42842261       1.05759715      -4.93597865
H       10.72415730       0.74851477      -2.88378505
H        7.77301553       3.02095148      -0.70629310
H        6.51298073       3.34805434      -2.72683028
H        7.23570175       3.23700976      -7.10270668
H        8.11949267       3.94646103      -5.95666212
H        4.15746317       3.58253961      -6.54776208
H        4.91017906       2.22666855      -7.02562724
C       10.73386674       1.73663528       2.02581172
C       11.47413194       1.46999899       2.93978575
Br      12.67107816       1.03887066       4.41760445
C       -0.85669851      -0.85669851      -0.85669851
H       -1.77018896      -0.39285855      -1.19809713
C       -0.46166615      -2.19036787      -1.20503563
H        0.50088774      -2.52136988      -0.81701876
C       -1.17436742      -3.15682405      -2.05263386
C       -0.57067292      -4.38842223      -2.33370862
C       -1.19716518      -5.32969615      -3.15962066
C       -2.44122384      -5.05378776      -3.73955082
C       -3.06336341      -3.83570963      -3.42131406
C       -2.43616692      -2.89785428      -2.59406504
C       -3.13836641      -6.01301993      -4.69275689
H       -3.84020879      -5.43149614      -5.30646751
C       -2.20204619      -6.79960611      -5.70100600
H       -1.47688710      -7.36550931      -5.10193982
C       -1.38940527      -5.98096267      -6.69831671
C       -0.42770145      -6.63834655      -7.48473232
C        0.37967159      -5.93578520      -8.38682937
C        0.25632663      -4.55002679      -8.52770446
C       -0.70935675      -3.89142845      -7.76205171
C       -1.52551989      -4.59773948      -6.86811086
C        1.13676922      -3.84328067      -9.46935544
H        1.83395061      -4.46743671     -10.02380553
C        1.19826810      -2.43449472      -9.73424888
H        0.56968764      -1.70211559      -9.24835280
N       -3.00206728      -7.82116906      -6.42117155
N       -3.97581406      -6.96074379      -3.91712978
H        0.40740919      -4.63070804      -1.92208117
H       -0.68151414      -6.26724262      -3.35095914
H       -4.04143085      -3.59514041      -3.83551399
H       -2.95373208      -1.96431653      -2.39417224
H       -0.30696083      -7.71743185      -7.39760573
H        1.10823882      -6.49189708      -8.97279885
H       -0.84720868      -2.81821420      -7.83483723
H       -2.25645144      -4.02479515      -6.30661875
H       -3.65736996      -8.19386538      -5.72418284
H       -3.60195018      -7.33421907      -7.08644658
H       -4.57530023      -6.42034893      -3.29211571
H       -3.36187708      -7.49775875      -3.30283902
C        2.13908412      -1.89960190     -10.68417251
C        2.92701753      -1.45162916     -11.47973354
Br       4.20103921      -0.72729512     -12.76608845
C       -0.85669851       0.85669851       0.85669851
H       -0.82657198       1.91075078       0.62382187
C       -1.66947900       0.29285171       1.89473894
H       -1.62765258      -0.79053183       2.00038015
C       -2.58335796       0.98851328       2.81195410
C       -3.35048995       0.23429031       3.70802350
C       -4.25626511       0.84927781       4.58093907
C       -4.42860486       2.23860884       4.56734873
C       -3.62691889       2.99569659       3.69777162
C       -2.72109121       2.37887993       2.82811511
C       -5.44168915       2.95320429       5.44924979
H       -5.67652050       3.91961853       4.98203341
C       -6.82435895       2.21006832       5.66823104
H       -6.60369299       1.22999069       6.11065255
C       -7.68684439       1.94226305       4.43957722
C       -8.83094516       1.13829890       4.58153625
C       -9.63887606       0.82046003       3.48360688
C       -9.32532408       1.29129548       2.20478505
C       -8.19919307       2.10545659       2.05818727
C       -7.39795147       2.43303826       3.16038051
C      -10.18521566       0.91858319       1.07206804
H      -11.04443493       0.29758324       1.31527346
C      -10.02157073       1.26062102      -0.31171624
H       -9.20892788       1.86318888      -0.69133601
N       -7.61691591       2.93587105       6.69162093
N       -4.81772807       3.28128589       6.75467367
H       -3.26367081      -0.85045115       3.73216036
H       -4.83199502       0.21636595       5.25135493
H       -3.71664021       4.08080762       3.67463742
H       -2.13820530       3.01008755       2.16392801
H       -9.10162000       0.75556121       5.56481720
H      -10.51398408       0.19527599       3.64719704
H       -7.91311365       2.49841038       1.08873608
H       -6.53993140       3.07157984       2.97635410
H       -6.93445598       3.24920902       7.39175319
H       -7.95104146       3.80185563       6.26971873
H       -3.94043674       3.77158756       6.57574056
H       -4.54905981       2.40623570       7.20717933
C      -10.95442054       0.79548448      -1.30521473
C      -11.73568225       0.40593264      -2.13726972
Br     -12.99891636      -0.22393975      -3.48263225
C        0.85669851      -0.85669851       0.85669851
H        1.85873650      -0.48679243       1.01561571
C        0.35406829      -2.06937196       1.43362939
H       -0.68644413      -2.30759804       1.21634700
C        1.05457693      -3.01491402       2.31433439
C        0.35000169      -4.10636625       2.83643582
C        0.96585116      -5.01777215       3.70285868
C        2.30304607      -4.84953645       4.08197991
C        3.01889974      -3.77849182       3.52299553
C        2.40175335      -2.87051019       2.65582271
C        3.00390507      -5.77288832       5.06734985
H        3.85041688      -5.22446567       5.50328989
C        2.12851954      -6.29164743       6.28249133
H        1.26305331      -6.81967219       5.86161073
C        1.56948728      -5.25171332       7.24748406
C        0.65397069      -5.66710574       8.22970390
C        0.07261278      -4.75361739       9.11671281
C        0.38300194      -3.39196156       9.04644110
C        1.30547829      -2.97339208       8.08396655
C        1.89615428      -3.89079531       7.20442065
C       -0.26411656      -2.45931417       9.98066928
H       -0.94805561      -2.90738823      10.69795902
C       -0.11521259      -1.03403611      10.05165199
H        0.52413453      -0.46165116       9.39499506
N        2.89028453      -7.31912525       7.03499811
N        3.60249553      -6.91600711       4.33518499
H       -0.69821575      -4.25813769       2.58545808
H        0.37121944      -5.84356441       4.08493203
H        4.06725220      -3.62809041       3.77674264
H        2.99658038      -2.04997072       2.26566974
H        0.39116250      -6.72121152       8.30962439
H       -0.62943933      -5.12659024       9.85930621
H        1.58237838      -1.92920013       7.98868161
H        2.60600836      -3.49861900       6.48323797
H        3.39122273      -7.86215039       6.32204507
H        3.63224605      -6.84307903       7.54729075
H        4.17033404      -6.54521955       3.57221128
H        2.84772355      -7.43304756       3.88170374
C       -0.84151995      -0.26080618      11.02540406
C       -1.44980236       0.38677388      11.84092142
Br      -2.43334358       1.43385608      13.15954402
