173
Properties=species:S:1:pos:R:3 pbc="F F F"
C        0.00000000       0.00000000       0.00000000
C        0.85644945       0.85644945      -0.85644945
H        1.73702341       0.37737615      -1.26165267
C        0.47460359       2.19776824      -1.18682082
H       -0.49212184       2.53930979      -0.82403694
C        1.21297723       3.14107914      -2.03379174
C        2.60736054       3.11274753      -2.14032544
C        3.28056971       4.02670092      -2.96120494
C        2.57526857       4.99086885      -3.69743303
C        1.17838338       5.04411875      -3.54342475
C        0.50718649       4.12845951      -2.72678872
C        3.32824338       5.95838926      -4.60389293
H        4.27315974       5.48527662      -4.89906820
C        2.58895769       6.27355513      -5.80358944
C        1.97964377       6.53332024      -6.79239257
C        1.17544485       6.85968123      -8.05145720
C        0.52925205       7.13407304      -9.02882472
C       -0.26054823       7.50483719     -10.20933353
H        0.40921789       7.49519426     -11.07796830
C       -0.86379003       8.89204478     -10.06570537
C       -0.54417285       9.89699943     -10.99026437
C       -1.07373811      11.18526259     -10.85852495
C       -1.92847264      11.50236840      -9.79712545
C       -2.27016743      10.49832739      -8.88602037
C       -1.74145605       9.20972195      -9.01532653
C       -2.46841536      12.86251702      -9.69113780
H       -2.50715444      13.43360000     -10.61581427
C       -2.88832688      13.53124781      -8.49435021
H       -2.78285242      13.10356697      -7.50694376
Br      -3.56554047      15.24849317      -8.55189130
N       -1.29259936       6.50024747     -10.45424388
N        3.64997708       7.18067938      -3.87240742
H        3.19305491       2.38755789      -1.58118609
H        4.36638782       3.98292203      -3.01982282
H        0.59077760       5.79323976      -4.06995202
H       -0.57640892       4.19003187      -2.65241138
H        0.13039704       9.68969259     -11.81878711
H       -0.79588044      11.94278337     -11.58859704
H       -2.95321088      10.69927284      -8.06452209
H       -2.01393431       8.45583924      -8.27918442
H       -1.87315393       6.81983606     -11.22715503
H       -1.90512705       6.45265957      -9.64364425
H        2.77945550       7.61752695      -3.57614251
H        4.09533844       7.83560317      -4.51139919
C       -0.85644945      -0.85644945      -0.85644945
H       -1.90810162      -0.60525223      -0.86269838
C       -0.29321794      -1.88276932      -1.68320540
H        0.79081294      -1.97006815      -1.69196968
C       -1.01773287      -2.78291394      -2.58720129
C       -2.33594508      -3.18170431      -2.34278413
C       -2.99936287      -4.04015176      -3.22896093
C       -2.36094696      -4.51975167      -4.38287182
C       -1.01916851      -4.15430739      -4.59245098
C       -0.35937084      -3.29393435      -3.70912953
C       -3.11226129      -5.43258259      -5.34568170
H       -4.18589726      -5.23388074      -5.23772656
C       -2.74726537      -5.19618753      -6.72264936
C       -2.44644362      -5.00135423      -7.85755872
C       -2.03849081      -4.74008429      -9.30800819
C       -1.69670997      -4.54947053     -10.44596932
C       -1.26598395      -4.35226736     -11.83537119
H       -2.16212887      -4.35232188     -12.46792970
C       -0.33600401      -5.46228250     -12.29567360
C       -0.68733233      -6.26517083     -13.39058779
C        0.14771413      -7.30551519     -13.81224838
C        1.34888811      -7.57334988     -13.14655944
C        1.71631093      -6.76095925     -12.06953202
C        0.88275037      -5.72060657     -11.64573623
C        2.20228414      -8.67003378     -13.61748983
H        2.07555557      -8.95983663     -14.65797877
C        3.13286469      -9.43260371     -12.83753212
H        3.25295535      -9.31065549     -11.76995817
Br       4.14442621     -10.77298573     -13.60628448
N       -0.63963659      -3.04055549     -11.98169991
N       -2.87900656      -6.83050123      -4.99355609
H       -2.86494600      -2.84008887      -1.45676402
H       -4.02319145      -4.33661385      -3.00932737
H       -0.47217598      -4.52500797      -5.45678543
H        0.67175721      -3.01824791      -3.91954363
H       -1.62210940      -6.09531911     -13.92144822
H       -0.16164220      -7.91473182     -14.65912595
H        2.65506231      -6.92057247     -11.54507389
H        1.19000800      -5.11790751     -10.79318984
H       -0.28117506      -2.96133026     -12.93133185
H        0.17168882      -2.99271175     -11.37015384
H       -1.88181027      -7.02026742      -5.07104726
H       -3.33685758      -7.42157212      -5.68391111
C       -0.85644945       0.85644945       0.85644945
H       -0.85152896       1.91022772       0.61429555
C       -1.69682428       0.29161268       1.87075570
H       -1.71561917      -0.79300960       1.94861532
C       -2.60232302       1.01617382       2.76935126
C       -2.35008453       2.32876570       3.18158328
C       -3.23792844       2.99243728       4.03810985
C       -4.40135802       2.35992487       4.50228757
C       -4.61925062       1.02318237       4.12349389
C       -3.73421425       0.36317177       3.26504869
C       -5.36554653       3.11168256       5.41329647
H       -5.24669541       4.18600789       5.22480125
C       -6.74349562       2.76062328       5.16198335
C       -7.87921383       2.47128819       4.95485456
C       -9.33079222       2.07812239       4.67766868
C      -10.46994894       1.74782146       4.47437942
C      -11.86123219       1.33080884       4.26158147
H      -12.48607479       2.23234757       4.26395809
C      -12.33904185       0.39537108       5.35954719
C      -13.43779913       0.74925363       6.15603819
C      -13.87555592      -0.09099496       7.18548848
C      -13.22250843      -1.30011892       7.44863170
C      -12.14169231      -1.66985906       6.64234708
C      -11.70181313      -0.83111461       5.61289391
C      -13.71017477      -2.15877260       8.53383730
H      -14.75200391      -2.02555179       8.81580771
C      -12.94482182      -3.10254371       9.29499303
H      -11.87730184      -3.23079749       9.18115396
Br     -13.73374547      -4.11886597      10.61996450
N      -12.00158750       0.71699719       2.94330731
N       -5.02751059       2.86344134       6.81211195
H       -1.45665348       2.85300280       2.85214260
H       -3.01210786       4.01175699       4.34526783
H       -5.49140266       0.48051886       4.48204786
H       -3.95105786      -0.66370426       2.97868073
H      -13.95915385       1.68999789       5.98972500
H      -14.72498228       0.22043510       7.79008260
H      -11.62668506      -2.61443444       6.79833343
H      -10.84675667      -1.14055084       5.01488352
H      -12.95353326       0.36743775       2.85286616
H      -11.39661732      -0.09913790       2.89369735
H       -5.11516865       1.86536355       6.99259275
H       -5.71899844       3.32215926       7.40118311
C        0.85644945      -0.85644945       0.85644945
H        0.90742491      -1.89799663       0.57063070
C        1.62850410      -0.30172085       1.92896771
H        1.59688017       0.77833311       2.05267784
C        2.52642611      -1.02631011       2.83511189
C        2.31452578      -2.36494450       3.18096324
C        3.19393067      -3.02766145       4.04688344
C        4.30842574      -2.36801393       4.58713077
C        4.48360008      -1.00815660       4.27417021
C        3.60723666      -0.34889366       3.40630440
C        5.26559615      -3.11784550       5.50708392
H        5.20150576      -4.18697992       5.26901889
C        6.63625510      -2.69910790       5.33073926
C        7.76596497      -2.35399195       5.18539967
C        9.20936718      -1.88903298       4.98818312
C       10.34056887      -1.50304916       4.84853179
C       11.72006705      -1.01959648       4.71395897
H       12.38286181      -1.89357863       4.70594001
C       12.11062188      -0.11367610       5.86966213
C       13.18959352      -0.45577188       6.69772555
C       13.54715908       0.35644169       7.77933204
C       12.83178278       1.52473599       8.06397442
C       11.77043845       1.88383352       7.22757541
C       11.41068908       1.07303309       6.14593645
C       13.23604520       2.35497667       9.20417094
H       14.27003106       2.25313442       9.52536318
C       12.39935802       3.23207628       9.96998940
H       11.33294109       3.32058284       9.81530007
Br      13.08749220       4.22182590      11.36917770
N       11.88839568      -0.34375492       3.42974139
N        4.85912269      -2.94493166       6.89900953
H        1.45922169      -2.91112374       2.79145346
H        3.00002997      -4.06788831       4.30121439
H        5.31565029      -0.44573601       4.69258307
H        3.79098234       0.69759831       3.17265030
H       13.75781807      -1.36586686       6.51519181
H       14.38339939       0.05467728       8.40677787
H       11.20881345       2.79846589       7.40023650
H       10.56864133       1.37228664       5.52473466
H       12.82718872       0.04875029       3.39539873
H       11.25111656       0.44785912       3.38791933
H        4.89572440      -1.95285737       7.12454318
H        5.54475914      -3.39962030       7.49796136
