98
Properties=species:S:1:pos:R:3 pbc="F F F"
C        1.82429357       1.82429357      -1.82429357
C        2.49349258       0.97558048      -2.88578712
C        3.39346100       1.81768541      -3.75412330
O        3.64493775       2.99924295      -3.55823004
C        4.04626423       1.10533831      -4.93133442
O        3.84347216      -0.09021812      -5.09436748
C        4.97236852       1.91495914      -5.79798018
C        6.36185128       1.88754936      -5.20318161
H        2.54781299       2.30684541      -1.16069731
H        1.17194591       2.58750521      -2.25861772
H        1.73743396       0.50154594      -3.52140470
H        3.10261459       0.19078330      -2.42240692
H        4.58745838       2.93421068      -5.90604460
H        4.96274484       1.47681548      -6.80316116
H        6.76274640       0.87121807      -5.14577097
H        6.39917792       2.33831541      -4.20777829
C        7.26349609       2.64162207      -6.03505358
C        8.01862362       3.27315797      -6.73174636
Br       9.23960097       4.29429810      -7.85823965
C       -1.82429357      -1.82429357      -1.82429357
C       -2.64284817      -0.95521003      -2.75680199
C       -3.54462896      -1.80011930      -3.62052145
O       -3.68734521      -3.01006927      -3.50499626
C       -4.34605213      -1.05626234      -4.68062250
O       -4.25004523       0.16101462      -4.75859091
C       -5.27615640      -1.87120417      -5.53794727
C       -6.60923817      -2.00544733      -4.83789674
H       -2.45077472      -2.41501852      -1.14956248
H       -1.15366982      -2.49485523      -2.36954379
H       -1.98105196      -0.37238722      -3.40694541
H       -3.26976337      -0.26183421      -2.18420723
H       -4.82438552      -2.84351347      -5.75981467
H       -5.38401377      -1.35781985      -6.50088787
H       -7.08088649      -1.03347768      -4.66537127
H       -6.52874958      -2.53292907      -3.88359297
C       -7.51641330      -2.76583422      -5.65792423
C       -8.27617246      -3.40265824      -6.34469724
Br      -9.50463878      -4.43234882      -7.45515113
C       -1.82429357       1.82429357       1.82429357
C       -1.56411152       3.28277182       1.50797685
C       -2.40230531       4.17749500       2.38546940
O       -3.10618514       3.78835798       3.30786763
C       -2.31630134       5.67028729       2.09634834
O       -1.56744869       6.06656988       1.21360295
C       -3.12043500       6.58903275       2.97584010
C       -2.31312627       6.93259267       4.20686331
H       -1.58059828       1.57384264       2.86091480
H       -2.86010032       1.53752333       1.62044519
H       -1.80898536       3.49084156       0.46055768
H       -0.50950505       3.53005249       1.67624727
H       -4.07928080       6.12311243       3.22532044
H       -3.35971070       7.48789647       2.39511432
H       -1.37996300       7.44502446       3.95474797
H       -2.07997861       6.05272232       4.81257069
C       -3.06338872       7.82912754       5.04765547
C       -3.69173353       8.57997550       5.75181891
Br      -4.70771395       9.79403314       6.89039163
C        1.82429357      -1.82429357       1.82429357
C        1.45882921      -3.27966671       1.61636426
C        2.29614989      -4.17185187       2.49726795
O        3.07849327      -3.77386629       3.35005119
C        2.10389242      -5.67076392       2.30828063
O        1.27881728      -6.07069007       1.49811416
C        2.90598404      -6.58461930       3.19470451
C        2.15883948      -6.80320014       4.49054262
H        1.66158506      -1.49806993       2.85570072
H        2.86037273      -1.61586097       1.54183513
H        1.62454128      -3.56438112       0.57146220
H        0.40411915      -3.44968044       1.86200522
H        3.90453007      -6.16602435       3.35715924
H        3.05459719      -7.52956207       2.65856222
H        1.18296046      -7.26990513       4.32686985
H        2.01677941      -5.87608644       5.05240577
C        2.90614044      -7.69382832       5.34020298
C        3.53200500      -8.43972942       6.05179353
Br       4.54397506      -9.64578840       7.20237526
C       -0.00445707       0.01189536      -1.78238275
H       -0.66409135       0.67374010      -2.43557963
H        0.65740317      -0.63156657      -2.45157240
C       -0.90989263      -0.90692880      -0.91072765
C        0.90977584       0.90977584      -0.90977584
C       -0.00465871       1.77757030       0.00794375
H       -0.66225468       2.44313916      -0.64384735
H        0.64322798       2.43503045       0.67728295
C       -1.78241447       0.00034974      -0.00472694
H       -2.45427497      -0.65498947       0.64260836
H       -2.43311707       0.67328779      -0.65473579
C       -0.91132561       0.90220522       0.91563759
C       -0.01476271      -0.02253852       1.78660255
H       -0.67934791      -0.69751639       2.42135241
H        0.63392994       0.61504881       2.47327442
C        0.01484550      -1.77751727      -0.01636693
H        0.67870853      -2.42144646      -0.68295456
H       -0.62264859      -2.45592969       0.64226336
C        1.78714474       0.01002794       0.00389507
H        2.44202412       0.67113390       0.66197326
H        2.45385902      -0.65136977      -0.64189061
C        0.91606151      -0.90478549       0.90901405
