77
Properties=species:S:1:pos:R:3 pbc="F F F"
C        0.00000000       0.00000000       0.00000000
C        0.91438954       0.91438954      -0.91438954
C        1.58358856       0.06567646      -1.97588310
C        2.48355697       0.90778139      -2.84421927
O        2.73503373       2.08933892      -2.64832602
C        3.13636021       0.19543429      -4.02143040
O        2.93356813      -1.00012215      -4.18446346
C        4.06246450       1.00505512      -4.88807616
C        5.45194726       0.97764533      -4.29327758
H        1.63790897       1.39694139      -0.25079328
H        0.26204188       1.67760118      -1.34871370
H        0.82752993      -0.40835809      -2.61150068
H        2.19271057      -0.71912073      -1.51250290
H        3.67755435       2.02430666      -4.99614058
H        4.05284082       0.56691146      -5.89325714
H        5.85284238      -0.03868596      -4.23586694
H        5.48927390       1.42841139      -3.29787426
C        6.35359207       1.73171805      -5.12514956
C        7.10871959       2.36325394      -5.82184233
Br       8.32969694       3.38439408      -6.94833563
C       -0.91438954      -0.91438954      -0.91438954
C       -1.69317092      -0.04863250      -1.88334470
C       -2.59451767      -0.89272755      -2.74831242
O       -2.76641262      -2.09645805      -2.60982800
C       -3.35618454      -0.15532840      -3.84171196
O       -3.23162691       1.05756612      -3.94384864
C       -4.28531704      -0.96871638      -4.70156235
C       -5.63586992      -1.05858663      -4.02841362
H       -1.56822363      -1.47636574      -0.24105427
H       -0.24711769      -1.61118891      -1.43005017
H       -1.00474516       0.50522508      -2.53115244
H       -2.31684221       0.67062926      -1.33987979
H       -3.85045840      -1.95523654      -4.89230664
H       -4.36094638      -0.47453254      -5.67753050
H       -6.08953680      -0.07306684      -3.88741973
H       -5.58772111      -1.56646013      -3.06137831
C       -6.54168488      -1.81711717      -4.85165761
C       -7.30030491      -2.45238650      -5.54112446
Br      -8.52692934      -3.47956327      -6.65593404
C       -0.91438954       0.91438954       0.91438954
C       -0.63867463       2.37322621       0.61324728
C       -1.47672070       3.26760118       1.49123576
O       -2.19209266       2.87663665       2.40396937
C       -1.37511023       4.76204870       1.21606597
O       -0.61505642       5.15941433       0.34343870
C       -2.17890627       5.68012595       2.09656355
C       -1.37951980       6.00576265       3.33758772
H       -0.68205435       0.65273703       1.95085226
H       -1.95082607       0.63856779       0.69896291
H       -0.87246379       2.59260567      -0.43439693
H        0.41652868       2.60970679       0.79291463
H       -3.14395666       5.22052225       2.33352268
H       -2.40517300       6.58611332       1.52172310
H       -0.43971975       6.51212398       3.09817964
H       -1.15943496       5.11860271       3.93752188
C       -2.12930153       6.90149414       4.17966400
C       -2.75724373       7.65166926       4.88490288
Br      -3.77257316       8.86463899       6.02521450
C        0.91438954      -0.91438954       0.91438954
C        0.52421111      -2.36700928       0.73392772
C        1.36137372      -3.25853360       1.61565031
O        2.16234404      -2.85976523       2.45058940
C        1.14400150      -4.75701682       1.45220658
O        0.30092386      -5.15644574       0.66053984
C        1.94570390      -5.66959223       2.34029965
C        1.21504791      -5.85755695       3.65026532
H        0.77215065      -0.57043455       1.94305844
H        1.94907082      -0.72585620       0.61342975
H        0.66986670      -2.66971055      -0.30890472
H       -0.52908132      -2.51739882       0.99777523
H        2.95270784      -5.26375667       2.48153708
H        2.07212497      -6.62454496       1.81633948
H        0.22997162      -6.31185222       3.50819952
H        1.09530165      -4.92014554       4.20011236
C        1.96176229      -6.74662982       4.50206755
C        2.58713559      -7.49122835       5.21545193
Br       3.59831132      -8.69518121       6.36893412
