106
Properties=species:S:1:pos:R:3 pbc="F F F"
C        1.82460706       1.82460706      -1.82460706
C        1.41783329       1.66104571      -3.27448782
C        2.28315722       2.51492383      -4.16418348
O        3.20110651       3.22208854      -3.77100617
C        1.97440198       2.48029763      -5.57491926
C        1.72191504       2.48716228      -6.74778507
C        1.39832524       2.55356538      -8.24241943
C        1.13650034       2.66964807      -9.40690912
C        0.80699934       2.87676849     -10.79795892
O        0.52289270       1.91788313     -11.50285490
C        0.87680604       4.30228134     -11.28042250
C       -0.04732873       4.50444364     -12.46145705
Br      -0.00195346       6.37343111     -13.00876805
H        2.85812548       1.51368541      -1.64636708
H        1.69356073       2.85195628      -1.47208638
H        0.37197910       1.95931907      -3.41461991
H        1.52106210       0.61583600      -3.58873751
H        1.91653256       4.52280930     -11.54841757
H        0.59248623       4.97226318     -10.45980392
H       -1.08786457       4.27527661     -12.21332667
H        0.25271445       3.91464320     -13.33198781
C       -1.82460706      -1.82460706      -1.82460706
C       -2.67834976      -2.72214459      -0.95287247
C       -3.54931032      -3.60937035      -1.80358386
O       -3.54802078      -3.61899249      -3.02718795
C       -4.44438157      -4.49260378      -1.09263352
C       -5.21372823      -5.21771434      -0.52541982
C       -6.23770915      -6.12185935       0.16525845
C       -7.08663507      -6.79963133       0.67320887
C       -8.15720848      -7.57718528       1.25266702
O       -7.94509554      -8.25053449       2.25199930
C       -9.47727699      -7.51179911       0.52956622
C      -10.61626827      -7.78879653       1.48649284
Br     -12.31252599      -7.61271061       0.54499089
H       -1.15175085      -2.39408001      -2.47234711
H       -2.42815593      -1.15019556      -2.43925191
H       -3.32365622      -2.12123034      -0.30103152
H       -2.04832771      -3.35769603      -0.31961187
H       -9.45786700      -8.24389512      -0.28599731
H       -9.59243995      -6.51613196       0.08401858
H      -10.64105111      -7.07385626       2.31416866
H      -10.58474193      -8.80461708       1.89001356
C       -1.82460706       1.82460706       1.82460706
C       -1.03167895       2.29543170       3.02625617
C       -1.88673981       3.15910639       3.91641833
O       -3.06353213       3.42219994       3.70846915
C       -1.23770365       3.70709357       5.08482166
C       -0.71454016       4.19368578       6.04863645
C       -0.06665725       4.86610705       7.26154575
C        0.42402178       5.45035974       8.18671957
C        1.00093332       6.21412461       9.26853546
O        1.77613780       5.67389061      10.04587792
C        0.55508865       7.64999524       9.36460328
C        1.61527149       8.48609338      10.04775008
Br       1.05054967      10.35015614      10.08063924
H       -2.68942829       1.21865206       2.11009762
H       -2.16095117       2.65710858       1.19954366
H       -0.16096915       2.87962506       2.70532387
H       -0.67371041       1.44036116       3.61156404
H       -0.39034051       7.67890870       9.91851021
H        0.36432482       8.03390419       8.35497397
H        2.56954901       8.45666242       9.51362529
H        1.77614018       8.18802772      11.08745792
C        1.82460706      -1.82460706       1.82460706
C        2.45673591      -2.91376276       0.98286815
C        3.32334086      -3.80301363       1.83591004
O        3.47469263      -3.67601231       3.04349628
C        4.01800109      -4.86534612       1.14627167
C        4.62439290      -5.73999428       0.59247520
C        5.44634935      -6.83687506      -0.08891437
C        6.14390882      -7.66824982      -0.59910111
C        7.03987035      -8.63379772      -1.19194132
O        6.63022437      -9.38228314      -2.06887678
C        8.43931174      -8.65458901      -0.63439087
C        9.41107495      -9.17733482      -1.66983780
Br      11.22113159      -9.11191776      -0.95280364
H        1.17921783      -2.22931301       2.60964713
H        2.57193054      -1.16710111       2.27857175
H        3.07795434      -2.47505825       0.19290549
H        1.68530627      -3.53170907       0.50862026
H        8.44105427      -9.28299017       0.26371498
H        8.71973426      -7.63788207      -0.33306300
H        9.41119622      -8.56787019      -2.57832771
H        9.21613535     -10.21973221      -1.93652210
C       -0.00445707       0.01189536      -1.78238275
H       -0.66409135       0.67374010      -2.43557963
H        0.65740317      -0.63156657      -2.45157240
C       -0.90989263      -0.90692880      -0.91072765
C        0.90977584       0.90977584      -0.90977584
C       -0.00465871       1.77757030       0.00794375
H       -0.66225468       2.44313916      -0.64384735
H        0.64322798       2.43503045       0.67728295
C       -1.78241447       0.00034974      -0.00472694
H       -2.45427497      -0.65498947       0.64260836
H       -2.43311707       0.67328779      -0.65473579
C       -0.91132561       0.90220522       0.91563759
C       -0.01476271      -0.02253852       1.78660255
H       -0.67934791      -0.69751639       2.42135241
H        0.63392994       0.61504881       2.47327442
C        0.01484550      -1.77751727      -0.01636693
H        0.67870853      -2.42144646      -0.68295456
H       -0.62264859      -2.45592969       0.64226336
C        1.78714474       0.01002794       0.00389507
H        2.44202412       0.67113390       0.66197326
H        2.45385902      -0.65136977      -0.64189061
C        0.91606151      -0.90478549       0.90901405
