114
Properties=species:S:1:pos:R:3 pbc="F F F"
C        1.82460706       1.82460706      -1.82460706
C        1.41783329       1.66104571      -3.27448782
C        2.28315722       2.51492383      -4.16418348
O        3.20110651       3.22208854      -3.77100617
C        1.97440198       2.48029763      -5.57491926
C        1.72191504       2.48716228      -6.74778507
C        1.39832524       2.55356538      -8.24241943
C        1.13650034       2.66964807      -9.40690912
C        0.80699934       2.87676849     -10.79795892
O        0.52289270       1.91788313     -11.50285490
C        0.87680604       4.30228134     -11.28042250
C       -0.04732873       4.50444364     -12.46145705
H        2.85812548       1.51368541      -1.64636708
H        1.69356073       2.85195628      -1.47208638
H        0.37197910       1.95931907      -3.41461991
H        1.52106210       0.61583600      -3.58873751
H        1.91653256       4.52280930     -11.54841757
H        0.59248623       4.97226318     -10.45980392
H       -1.08786457       4.27527661     -12.21332667
H        0.25271445       3.91464320     -13.33198781
C       -0.01378651       5.88603267     -12.86603915
C        0.01430509       7.04311348     -13.20487665
Br       0.05972684       8.91401529     -13.75274824
C       -1.82460706      -1.82460706      -1.82460706
C       -2.40972184      -2.94872253      -0.99492246
C       -3.27545340      -3.83828431      -1.84852682
O       -3.45932213      -3.68620058      -3.04867850
C       -3.92742852      -4.93348806      -1.16870229
C       -4.49899919      -5.83570918      -0.62215402
C       -5.27757222      -6.96836094       0.05162311
C       -5.94235931      -7.82852408       0.55782586
C       -6.80020143      -8.82961557       1.14809025
O       -6.35143207      -9.58859162       1.99639295
C       -8.21197905      -8.87133653       0.62380570
C       -9.14532393      -9.44232029       1.66907225
H       -1.18914600      -2.19450889      -2.63452308
H       -2.59832438      -1.17493547      -2.24434356
H       -3.02171832      -2.54436783      -0.17983193
H       -1.61236133      -3.55875216      -0.55452212
H       -8.22069281      -9.47794644      -0.28912018
H       -8.52391660      -7.85488955       0.35425281
H       -9.13776600      -8.85492966       2.59195696
H       -8.91905352     -10.48570787       1.90541593
C      -10.49670164      -9.41408655       1.17250289
C      -11.62848048      -9.39044080       0.75662605
Br     -13.45847113      -9.35220761       0.08418837
C       -1.82460706       1.82460706       1.82460706
C       -1.17314549       1.99935788       3.18086345
C       -2.03253266       2.85811561       4.07161626
O       -3.11600905       3.32754185       3.75065031
C       -1.50626576       3.13534321       5.38800991
C       -1.07945300       3.39975310       6.47765629
C       -0.54449916       3.79291609       7.85689480
C       -0.13026644       4.16317012       8.91962097
C        0.36805095       4.67447511      10.17530258
O        0.93221782       3.91990649      10.95594206
C        0.11033674       6.13617219      10.43367442
C        1.15359177       6.69644094      11.37572280
H       -2.79711334       1.32841743       1.89264720
H       -1.94377485       2.77601533       1.29781323
H       -0.19227018       2.47811133       3.07553658
H       -1.02964615       1.02784491       3.66814455
H       -0.89742656       6.23759886      10.85273401
H        0.13326566       6.67772750       9.48009150
H        2.16685057       6.59045814      10.97713113
H        1.10828053       6.23949929      12.36812669
C        0.92706831       8.10669707      11.55865654
C        0.73735490       9.28778659      11.71186354
Br       0.43060438      11.19750844      11.95958631
C        1.82460706      -1.82460706       1.82460706
C        2.46075294      -2.91068967       0.98192421
C        3.32743328      -3.79991218       1.83491907
O        3.47600873      -3.67511295       3.04307953
C        4.02573810      -4.85935861       1.14452217
C        4.63510135      -5.73158812       0.59017292
C        5.46075667      -6.82533518      -0.09178180
C        6.16110633      -7.65419277      -0.60224157
C        7.06030864      -8.61663814      -1.19522003
O        6.65404753      -9.36414485      -2.07456165
C        8.45862793      -8.63568115      -0.63479919
C        9.43362926      -9.15424647      -1.66930376
H        1.17843152      -2.23228905       2.60745739
H        2.56961329      -1.16649593       2.28149418
H        3.08269717      -2.46904927       0.19417164
H        1.69160040      -3.52924921       0.50478600
H        8.45981236      -9.26594735       0.26199971
H        8.73630414      -7.61902339      -0.33077420
H        9.43436968      -8.54289120      -2.57652217
H        9.24141709     -10.19648900      -1.93856063
C       10.77044684      -9.10421141      -1.13637295
C       11.89003156      -9.06230706      -0.69004339
Br      13.70030537      -8.99455125       0.03163375
C       -0.00445707       0.01189536      -1.78238275
H       -0.66409135       0.67374010      -2.43557963
H        0.65740317      -0.63156657      -2.45157240
C       -0.90989263      -0.90692880      -0.91072765
C        0.90977584       0.90977584      -0.90977584
C       -0.00465871       1.77757030       0.00794375
H       -0.66225468       2.44313916      -0.64384735
H        0.64322798       2.43503045       0.67728295
C       -1.78241447       0.00034974      -0.00472694
H       -2.45427497      -0.65498947       0.64260836
H       -2.43311707       0.67328779      -0.65473579
C       -0.91132561       0.90220522       0.91563759
C       -0.01476271      -0.02253852       1.78660255
H       -0.67934791      -0.69751639       2.42135241
H        0.63392994       0.61504881       2.47327442
C        0.01484550      -1.77751727      -0.01636693
H        0.67870853      -2.42144646      -0.68295456
H       -0.62264859      -2.45592969       0.64226336
C        1.78714474       0.01002794       0.00389507
H        2.44202412       0.67113390       0.66197326
H        2.45385902      -0.65136977      -0.64189061
C        0.91606151      -0.90478549       0.90901405
