157
Properties=species:S:1:pos:R:3 pbc="F F F"
C        0.00000000       0.00000000       0.00000000
C        1.36520852      -1.28533368      -3.72815922
O        1.29475166      -0.93011320      -2.35203624
C        1.48555606       0.39341178      -2.05322178
C        2.28513312       1.25192608      -2.81767737
C        2.47882648       2.59573193      -2.44768866
C        1.86020284       3.06733528      -1.27996528
C        1.06817945       2.21858100      -0.50458996
C        0.88728005       0.88728005      -0.88728005
C        3.34601279       3.49508606      -3.31565218
H        3.75455784       2.89478559      -4.14011485
C        2.56411898       4.70566572      -3.96464763
H        2.02769806       5.24801266      -3.17491492
C        1.53056463       4.25040805      -4.99022082
C        1.82808927       4.10224064      -6.35186741
C        0.85749213       3.64737452      -7.24678512
C       -0.42106289       3.32117523      -6.79002020
C       -0.75094986       3.45614842      -5.43537450
C        0.22919431       3.92530540      -4.55167861
O       -2.02387413       3.10885862      -5.06632280
C       -2.38798882       3.27845794      -3.70276723
Br      -1.68258632       2.69186152      -8.06508447
N        3.51387631       5.69925533      -4.52107105
N        4.52706486       3.96236387      -2.55099841
H        1.04246837      -2.32726468      -3.81962247
H        2.39202787      -1.22926071      -4.10233538
H        0.69019040      -0.66861555      -4.33141774
H        2.78257482       0.88520070      -3.71140157
H        1.98471867       4.10102292      -0.95977383
H        0.59792289       2.60063046       0.39843466
H        2.81214274       4.35136911      -6.74020547
H        1.10765086       3.55318815      -8.30070244
H        0.00375729       4.04224692      -3.49609118
H       -3.43852880       2.99026394      -3.59913358
H       -2.30115330       4.32650313      -3.39713382
H       -1.79728002       2.62474930      -3.05269873
H        4.11444109       5.21710371      -5.18981527
H        4.17180401       5.90642880      -3.76230801
H        5.00553850       3.14324061      -2.17354196
H        4.21075259       4.49144907      -1.73963404
C       -2.61290246      -2.81945904       1.62432744
O       -1.50112523      -2.20173360       0.98618412
C       -1.63104700      -1.94726017      -0.35388243
C       -2.41869812      -2.72040148      -1.21563697
C       -2.49015265      -2.43943977      -2.59265465
C       -1.74224601      -1.36587369      -3.09938371
C       -0.94612260      -0.59348443      -2.25174339
C       -0.88728005      -0.88728005      -0.88728005
C       -3.36894058      -3.29895378      -3.48885666
H       -3.81340885      -4.09725344      -2.87879599
C       -4.56114596      -2.51020538      -4.16308099
H       -4.16012734      -1.62185866      -4.66863964
C       -5.59310048      -2.03146070      -3.14663232
C       -6.70585107      -2.79937518      -2.77697108
C       -7.60377583      -2.33344137      -1.81443458
C       -7.39396552      -1.09830567      -1.19786136
C       -6.29108590      -0.30663341      -1.54285375
C       -5.40583567      -0.78151127      -2.51883138
O       -6.15238374       0.88847652      -0.88740006
C       -5.06158656       1.72278650      -1.25443629
Br      -8.64973226      -0.54001804       0.11539064
N       -5.16861459      -3.31591894      -5.24966916
N       -2.54157817      -3.99703582      -4.50181315
H       -2.42264135      -2.81443730       2.70225250
H       -2.71832821      -3.86468962       1.31791528
H       -3.53606092      -2.25875956       1.44182788
H       -2.98324064      -3.56525590      -0.83068056
H       -1.77093681      -1.11547196      -4.15910665
H       -0.37161981       0.23361727      -2.66211616
H       -6.90007749      -3.76294725      -3.24069259
H       -8.46708661      -2.94079774      -1.55365709
H       -4.54261748      -0.19042226      -2.80905566
H       -5.12903275       2.64065367      -0.66248964
H       -5.11765429       2.00601161      -2.31084096
H       -4.10419498       1.24536767      -1.02134071
H       -5.46434488      -4.20667527      -4.85033992
H       -4.38754854      -3.60518046      -5.84781182
H       -1.80336836      -4.50569451      -4.01325822
H       -2.06212752      -3.30448575      -5.07522244
C       -0.93568503      -1.05524548       3.92759451
O       -1.00996225      -0.81953191       2.52624437
C       -1.34177798       0.45203177       2.13837985
C       -2.14948103       1.30698267       2.89827287
C       -2.49179364       2.59209786       2.43835557
C       -2.01525865       3.00675018       1.18549458
C       -1.21681689       2.15989648       0.41463705
C       -0.88728005       0.88728005       0.88728005
C       -3.36178366       3.49128502       3.30368235
H       -3.64638705       2.93546670       4.20760454
C       -2.64045563       4.81477360       3.77920310
H       -2.22090925       5.32661874       2.90309765
C       -1.49003034       4.53880911       4.74235405
C       -1.66079295       4.48876556       6.13263881
C       -0.58358379       4.19639445       6.97167353
C        0.67729774       3.93645100       6.43097928
C        0.88193368       3.97666820       5.04583854
C       -0.20510837       4.28344461       4.21762534
O        2.14627984       3.70314692       4.59444021
C        2.38107697       3.77974127       3.19457206
Br       2.08993836       3.52859294       7.63570509
N       -3.62629100       5.77298147       4.33493023
N       -4.63835403       3.79037450       2.61169861
H       -0.51496181      -2.05497446       4.07483881
H       -1.92935700      -1.05021637       4.38596192
H       -0.27125476      -0.33407510       4.41581293
H       -2.53748296       0.98192669       3.85976745
H       -2.25718644       3.99412154       0.79420744
H       -0.85792704       2.49711151      -0.55491986
H       -2.62806282       4.69019247       6.58546203
H       -0.73730936       4.17638011       8.04785198
H       -0.07808783       4.32387611       3.14013145
H        3.44111333       3.57035085       3.02163121
H        2.17646371       4.78574426       2.81320310
H        1.79980535       3.02457535       2.65539801
H       -4.12477138       5.30485887       5.09172982
H       -4.35991280       5.85718866       3.62343936
H       -5.07117344       2.90448789       2.34665975
H       -4.43788694       4.26912432       1.73482445
C        1.26665173      -3.77881093      -1.23742859
O        0.57752932      -2.72064133      -0.58149595
C        1.16682370      -2.21702924       0.54833667
C        1.98052677      -2.97422499       1.39998481
C        2.53324033      -2.41972353       2.56928322
C        2.24482576      -1.08229441       2.88038323
C        1.42745035      -0.31994836       2.04395170
C        0.88728005      -0.88728005       0.88728005
C        3.42180125      -3.27670190       3.45824788
H        3.46162707      -4.29066199       3.03716922
C        4.91112765      -2.75843961       3.56486508
H        4.90012613      -1.69867589       3.85182362
C        5.66290618      -2.86646917       2.24181815
C        6.40065419      -4.00186992       1.87967322
C        7.04221448      -4.06824479       0.64119251
C        6.94369209      -3.00502074      -0.25858029
C        6.21296764      -1.85637912       0.07122630
C        5.58517534      -1.79905678       1.32194619
O        6.15899485      -0.86086657      -0.86855413
C        5.45599893       0.32852634      -0.53423623
Br       7.82952567      -3.17648480      -1.93165080
N        5.61982421      -3.43875240       4.67562608
N        2.80744342      -3.43477068       4.79821304
H        0.76169104      -3.96392355      -2.19078843
H        1.21739996      -4.70601684      -0.65831425
H        2.30428209      -3.50188082      -1.45317031
H        2.18953790      -4.01618353       1.17345567
H        2.65375735      -0.61593198       3.77582610
H        1.21294425       0.71451517       2.30168961
H        6.50042934      -4.84466885       2.55861913
H        7.61989462      -4.95383765       0.38780918
H        5.01286255      -0.92174067       1.60749217
H        5.54809362       1.01939902      -1.37782587
H        5.89675341       0.81605081       0.34178105
H        4.39040765       0.12736559      -0.38287406
H        5.56558296      -4.44402384       4.51175328
H        5.01516939      -3.32887370       5.49649773
H        1.85880755      -3.79075462       4.67275891
H        2.69973660      -2.51619684       5.22590227
