165
Properties=species:S:1:pos:R:3 pbc="F F F"
C        0.00000000       0.00000000       0.00000000
C        1.36520852      -1.28533368      -3.72815922
O        1.29475166      -0.93011320      -2.35203624
C        1.48555606       0.39341178      -2.05322178
C        2.28513312       1.25192608      -2.81767737
C        2.47882648       2.59573193      -2.44768866
C        1.86020284       3.06733528      -1.27996528
C        1.06817945       2.21858100      -0.50458996
C        0.88728005       0.88728005      -0.88728005
C        3.34601279       3.49508606      -3.31565218
H        3.75455784       2.89478559      -4.14011485
C        2.56411898       4.70566572      -3.96464763
H        2.02769806       5.24801266      -3.17491492
C        1.53056463       4.25040805      -4.99022082
C        1.82808927       4.10224064      -6.35186741
C        0.85749213       3.64737452      -7.24678512
C       -0.42106289       3.32117523      -6.79002020
C       -0.75094986       3.45614842      -5.43537450
C        0.22919431       3.92530540      -4.55167861
O       -2.02387413       3.10885862      -5.06632280
C       -2.38798882       3.27845794      -3.70276723
N        3.51387631       5.69925533      -4.52107105
N        4.52706486       3.96236387      -2.55099841
H        1.04246837      -2.32726468      -3.81962247
H        2.39202787      -1.22926071      -4.10233538
H        0.69019040      -0.66861555      -4.33141774
H        2.78257482       0.88520070      -3.71140157
H        1.98471867       4.10102292      -0.95977383
H        0.59792289       2.60063046       0.39843466
H        2.81214274       4.35136911      -6.74020547
H        1.10765086       3.55318815      -8.30070244
H        0.00375729       4.04224692      -3.49609118
H       -3.43852880       2.99026394      -3.59913358
H       -2.30115330       4.32650313      -3.39713382
H       -1.79728002       2.62474930      -3.05269873
H        4.11444109       5.21710371      -5.18981527
H        4.17180401       5.90642880      -3.76230801
H        5.00553850       3.14324061      -2.17354196
H        4.21075259       4.49144907      -1.73963404
C       -1.37673266       2.84443729      -7.75594786
C       -2.17710608       2.44516926      -8.56491227
Br      -3.47124222       1.79958663      -9.87293931
C       -2.63872538      -2.79469225       1.62538357
O       -1.51966903      -2.18717550       0.99016982
C       -1.64031437      -1.93978647      -0.35208877
C       -2.42745020      -2.71336128      -1.21392509
C       -2.48926084      -2.44004045      -2.59294578
C       -1.73216251      -1.37381675      -3.10152415
C       -0.93647707      -0.60112565      -2.25374769
C       -0.88728005      -0.88728005      -0.88728005
C       -3.36783497      -3.29965688      -3.48925918
H       -3.82049705      -4.09178249      -2.87717874
C       -4.55147405      -2.50794896      -4.17500932
H       -4.14234108      -1.62491627      -4.68336830
C       -5.58650105      -2.01728595      -3.16740651
C       -6.70584860      -2.77654983      -2.79979890
C       -7.60661205      -2.29979092      -1.84524881
C       -7.39317343      -1.06231314      -1.23464597
C       -6.28370099      -0.27909080      -1.57778127
C       -5.39558582      -0.76479836      -2.54579413
O       -6.14182787       0.91900284      -0.92848226
C       -5.04406025       1.74480284      -1.29397895
N       -5.15731769      -3.31645547      -5.26042953
N       -2.53869511      -4.00844082      -4.49329121
H       -2.45470354      -2.78447725       2.70435464
H       -2.74847517      -3.84106536       1.32443798
H       -3.55751590      -2.22971518       1.43423848
H       -2.99914675      -3.55265790      -0.82737245
H       -1.75323275      -1.12944922      -4.16283346
H       -0.35477667       0.22021246      -2.66555449
H       -6.90300499      -3.74167054      -3.25904179
H       -8.47495752      -2.90058749      -1.58599644
H       -4.52725693      -0.18044013      -2.83439833
H       -5.10957957       2.66648965      -0.70777880
H       -5.09233396       2.02217108      -2.35232077
H       -4.09084506       1.26320038      -1.05252333
H       -5.46056285      -4.20313010      -4.85766712
H       -4.37449355      -3.61373991      -5.85230737
H       -1.80632088      -4.51851602      -3.99748419
H       -2.05188270      -3.32205026      -5.06790274
C       -8.34775812      -0.62805562      -0.24783876
C       -9.14722280      -0.26436494       0.57861228
Br     -10.43988956       0.32369213       1.91491371
C       -0.20233123      -0.52883936       4.13454219
O       -0.50634885      -0.53410635       2.74443221
C       -1.08868066       0.60036171       2.24314723
C       -1.91058452       1.44655003       2.99760201
C       -2.51530424       2.58122447       2.42571836
C       -2.28929831       2.85077489       1.06743021
C       -1.47926163       2.00945747       0.30263131
C       -0.88728005       0.88728005       0.88728005
C       -3.39063375       3.47899817       3.28711911
H       -3.45455430       3.04187803       4.29302595
C       -2.83287534       4.94849643       3.45306057
H       -2.62616521       5.36575126       2.45870917
C       -1.53120558       4.99256717       4.24742076
C       -1.49804695       5.14366625       5.64048412
C       -0.28243089       5.14163187       6.32758902
C        0.91693366       4.97476321       5.63230299
C        0.91916923       4.81956610       4.24017618
C       -0.30687854       4.83606086       3.56323891
O        2.13643466       4.65426727       3.63347467
C        2.16026200       4.53641729       2.21708107
N       -3.87366379       5.83816168       4.02237721
N       -4.78185383       3.48371617       2.77485713
H        0.38994226      -1.42406923       4.34883765
H       -1.11093200      -0.58743142       4.74160197
H        0.39844136       0.34621318       4.40522078
H       -2.10471480       1.22992808       4.04453423
H       -2.73855347       3.71937166       0.58759030
H       -1.31665067       2.23264532      -0.74917730
H       -2.41319614       5.27976323       6.21075796
H       -0.28082849       5.27391561       7.40679735
H       -0.33804425       4.71983090       2.48422024
H        3.20600084       4.45035942       1.90651014
H        1.74584670       5.42997033       1.73836002
H        1.63918871       3.63143090       1.88792581
H       -4.18102128       5.43354845       4.90679034
H       -4.70241016       5.70472244       3.43340822
H       -5.09896894       2.51556709       2.70778505
H       -4.78402812       3.83825022       1.81955738
C        2.13848492       4.96736619       6.39477121
C        3.16153410       4.96117119       7.03333836
Br       4.81571810       4.95115440       8.06584742
C        0.45675683      -4.08301185      -0.73173462
O        0.05740436      -2.83535963      -0.17608928
C        0.90311289      -2.28073138       0.74834533
C        1.73182083      -3.03380809       1.58910764
C        2.55636002      -2.41740309       2.54848397
C        2.52816380      -1.01905135       2.66028825
C        1.69930391      -0.25806483       1.83398167
C        0.88728005      -0.88728005       0.88728005
C        3.44967120      -3.27516190       3.43191793
H        3.26460002      -4.33149853       3.19335973
C        4.99480055      -3.01519290       3.22443888
H        5.19127469      -1.93918218       3.32016877
C        5.47933019      -3.44778343       1.84407988
C        5.96591880      -4.73557927       1.58069925
C        6.36411509      -5.09582909       0.29170760
C        6.26849423      -4.17699524      -0.75535693
C        5.78505220      -2.88233006      -0.52680921
C        5.40105542      -2.53148475       0.77363815
O        5.71577018      -2.04312059      -1.60758348
C        5.26614568      -0.71296623      -1.38587556
N        5.77797513      -3.63668563       4.31954192
N        3.06243440      -3.12310145       4.85489129
H       -0.22882493      -4.31620559      -1.55255450
H        0.37264510      -4.89113163       0.00132580
H        1.47010723      -4.02677244      -1.14388707
H        1.74128821      -4.11814119       1.51974770
H        3.15182242      -0.50388846       3.38980454
H        1.68883182       0.82455738       1.93584425
H        6.05682438      -5.47279211       2.37410084
H        6.75091858      -6.09637125       0.11425163
H        5.02387142      -1.53517159       0.98305237
H        5.31071754      -0.18156815      -2.34141698
H        5.92052101      -0.18564465      -0.68368201
H        4.22555310      -0.70010452      -1.04548962
H        5.54758110      -4.63001280       4.34376617
H        5.34915937      -3.30241823       5.18896322
H        2.06436332      -3.32240190       4.93555586
H        3.16845227      -2.14676963       5.12661381
C        6.68093753      -4.60852076      -2.06580580
C        7.02635880      -4.96992338      -3.16330673
Br       7.58487577      -5.55428086      -4.93787291
