149
Properties=species:S:1:pos:R:3 pbc="F F F"
C        0.00000000       0.00000000       0.00000000
N        4.28760746       4.18376687      -2.76574449
C        3.18592258       3.48561152      -3.48205098
H        3.68956129       2.85869889      -4.22889436
C        2.41550781       2.59374992      -2.51558505
C        2.39570650       1.20126689      -2.73341427
C        1.65574831       0.33269373      -1.92144222
N        1.52365562      -1.01020979      -2.31548363
C        0.88803076       0.88803076      -0.88803076
C        0.93409864       2.25661398      -0.61287304
C        1.70041452       3.09476714      -1.42068119
O        1.76906002       4.42970836      -1.13725638
C        2.28497692       4.53232661      -4.26666411
H        1.66043850       5.04691247      -3.52576064
C        1.31858278       4.03315618      -5.33486444
C        1.16959755       2.67870470      -5.67194620
C        0.17226643       2.23291685      -6.55517207
N        0.14447543       0.86779575      -6.90289227
C       -0.61637048       3.18867052      -7.21098848
C       -0.46906357       4.54520734      -6.93053502
C        0.49163384       4.94875651      -6.00859124
O        0.63208927       6.29878680      -5.81861998
Br      -1.93068772       2.66779378      -8.48125128
N        3.14905915       5.60148486      -4.85610916
H        4.83132979       3.48120497      -2.26369636
H        3.83875977       4.73848124      -2.02748605
H        2.94688352       0.78393302      -3.57498021
H        2.34064553      -1.39550180      -2.77931262
H        1.18665937      -1.60924186      -1.56440812
H        0.36504877       2.65730582       0.22110601
H        1.15920839       4.63531986      -0.40751584
H        1.82794042       1.92934865      -5.25378888
H        0.39596268       0.25099464      -6.13738672
H       -0.73953170       0.60177245      -7.33108972
H       -1.07793315       5.29116568      -7.43129400
H        1.54195141       6.42985581      -5.46288343
H        3.70045385       5.15997570      -5.59727979
H        3.86365477       5.77691685      -4.13326933
N       -3.36007904      -3.15659389      -4.72044589
C       -3.58025811      -3.31588270      -3.25744428
H       -3.35435215      -4.37014749      -3.05265490
C       -2.60766364      -2.43461288      -2.48256626
C       -1.66993867      -3.03924417      -1.62120483
C       -0.79143679      -2.28565277      -0.83279469
N       -0.02605166      -2.94655606       0.14367825
C       -0.88803076      -0.88803076      -0.88803076
C       -1.76705200      -0.26187644      -1.77465722
C       -2.61145811      -1.03677830      -2.56762644
O       -3.45285048      -0.42772719      -3.45544710
C       -5.10891189      -3.07669164      -2.89836412
H       -5.29116048      -1.99581776      -2.94613338
C       -5.63382309      -3.51647370      -1.53630660
C       -4.83330721      -4.12810271      -0.55883854
C       -5.30596209      -4.39189402       0.73750077
N       -4.46413296      -5.08264018       1.63160968
C       -6.65702862      -4.14606495       1.01980506
C       -7.49123795      -3.57615902       0.06071818
C       -6.97649911      -3.27594645      -1.19653602
O       -7.85836098      -2.77355538      -2.11757969
Br      -7.39011498      -4.55357634       2.72533397
N       -5.97686966      -3.66450358      -3.96527993
H       -2.36740743      -3.30196382      -4.90685987
H       -3.51785789      -2.16271027      -4.92415890
H       -1.64185462      -4.12490381      -1.53903833
H        0.27371985      -3.88097497      -0.11720123
H        0.74219797      -2.37720557       0.49318197
H       -1.79239267       0.82257169      -1.83142760
H       -3.40016386       0.53679603      -3.33867626
H       -3.81462079      -4.41662550      -0.77983166
H       -3.48449688      -4.83591529       1.53606813
H       -4.78423114      -5.00344203       2.59434270
H       -8.53740303      -3.37950617       0.27238266
H       -7.46704166      -2.96612116      -3.00152783
H       -5.87427083      -4.68125928      -3.90217923
H       -5.47788538      -3.45305183      -4.84290374
N       -4.55997189       2.86352803       3.81361890
C       -3.38819765       3.55467123       3.21071620
H       -2.80053867       3.90971987       4.06689599
C       -2.55416173       2.56536420       2.40531685
C       -1.22325239       2.31248298       2.79465229
C       -0.38319697       1.46457429       2.06211300
N        0.98176816       1.41599319       2.39470443
C       -0.88803076       0.88803076       0.88803076
C       -2.21955667       1.07437469       0.50965431
C       -3.04147513       1.90214512       1.27224261
O       -4.35167168       2.06445860       0.91989448
C       -3.85948481       4.83193965       2.39254319
H       -4.30346929       4.47465437       1.45498796
C       -2.82891378       5.87709937       1.98059025
C       -1.46160548       5.77678210       2.28186088
C       -0.51428030       6.67796096       1.76811409
N        0.82559867       6.55461891       2.18614322
C       -0.97039098       7.78066326       1.03223427
C       -2.32538980       7.93379208       0.74749691
C       -3.23146473       6.99223788       1.22527897
O       -4.55644155       7.22753028       0.96552423
Br       0.24285135       9.08721371       0.37399498
N       -4.97714499       5.51242357       3.11708461
H       -4.21770547       2.04339463       4.31513103
H       -5.09758236       2.47942512       3.02771958
H       -0.81975002       2.81130253       3.67474421
H        1.17769592       1.51616723       3.38598503
H        1.45818783       0.61486227       1.98515119
H       -2.60016723       0.58134014      -0.38025878
H       -4.51556990       1.61250763       0.07396656
H       -1.09394256       4.99027096       2.92686443
H        1.12179275       5.59248629       2.31365050
H        1.46177737       7.07179105       1.58331680
H       -2.68624155       8.78269777       0.17558722
H       -5.06035088       6.72604965       1.64829012
H       -4.57585728       5.91156476       3.97028731
H       -5.54612130       4.73730389       3.49041575
N        4.46080925      -2.80556545       3.97074413
C        3.42018719      -3.53591093       3.19748695
H        2.79627150      -4.02351743       3.95736560
C        2.56846828      -2.55075230       2.40562220
C        1.18995869      -2.45619988       2.68422910
C        0.33959239      -1.61884381       1.95144805
N       -1.04771637      -1.72429755       2.15234827
C        0.88803076      -0.88803076       0.88803076
C        2.25969048      -0.91764086       0.62625432
C        3.08744680      -1.73957483       1.38884123
O        4.43330944      -1.74979598       1.15291934
C        4.08454260      -4.68040362       2.31902142
H        4.57304480      -4.19540016       1.46466666
C        3.20145907      -5.76775795       1.71738638
C        1.80956334      -5.81908122       1.89160389
C        1.00399597      -6.74639563       1.20996375
N       -0.37332077      -6.78384536       1.50463886
C        1.62897942      -7.72721857       0.42709053
C        3.01235510      -7.73095062       0.26337307
C        3.77628831      -6.76376863       0.90892465
O        5.13569814      -6.85404810       0.75974982
Br       0.61217330      -9.06588238      -0.45969834
N        5.19447352      -5.32637192       3.08580773
H        3.99703624      -2.07188330       4.50731158
H        5.02604102      -2.30045478       3.27823127
H        0.76048776      -3.07230431       3.47300469
H       -1.32016906      -1.93765197       3.10697343
H       -1.56173535      -0.93252262       1.77103836
H        2.66790552      -0.30834552      -0.17500246
H        4.62680592      -1.20475381       0.37048436
H        1.31115527      -5.13497442       2.56494827
H       -0.77206684      -5.86884417       1.68756671
H       -0.89999563      -7.29419734       0.79912877
H        3.50360651      -8.48463925      -0.34371922
H        5.52569199      -6.37878824       1.53021043
H        4.75986531      -5.84084988       3.85699414
H        5.64975425      -4.54391281       3.58017388
