178
Properties=species:S:1:pos:R:3 pbc="F F F"
N        5.19751149       5.09367089      -3.67564852
C        4.09582660       4.39551555      -4.39195500
H        4.59946531       3.76860291      -5.13879838
C        3.32541184       3.50365394      -3.42548907
C        3.30561053       2.11117091      -3.64331830
C        2.56565234       1.24259775      -2.83134624
N        2.43355965      -0.10030577      -3.22538765
C        1.79793478       1.79793478      -1.79793478
C        1.84400267       3.16651800      -1.52277707
C        2.61031855       4.00467117      -2.33058521
O        2.67896405       5.33961239      -2.04716041
C        3.19488095       5.44223063      -5.17656814
H        2.57034253       5.95681650      -4.43566466
C        2.22848680       4.94306021      -6.24476846
C        2.07950157       3.58860872      -6.58185023
C        1.08217045       3.14282087      -7.46507609
N        1.05437945       1.77769978      -7.81279630
C        0.29353354       4.09857454      -8.12089250
C        0.44084045       5.45511136      -7.84043905
C        1.40153786       5.85866053      -6.91849526
O        1.54199329       7.20869083      -6.72852401
N        4.05896318       6.51138889      -5.76601318
H        5.74123382       4.39110900      -3.17360039
H        4.74866380       5.64838526      -2.93739008
H        3.85678754       1.69383705      -4.48488424
H        3.25054955      -0.48559778      -3.68921664
H        2.09656339      -0.69933783      -2.47431215
H        1.27495280       3.56720985      -0.68879801
H        2.06911242       5.54522388      -1.31741987
H        2.73784445       2.83925267      -6.16369291
H        1.30586671       1.16089867      -7.04729074
H        0.17037233       1.51167647      -8.24099375
H       -0.16802912       6.20106971      -8.34119802
H        2.45185544       7.33975983      -6.37278746
H        4.61035787       6.06987972      -6.50718382
H        4.77355879       6.68682087      -5.04317336
C       -0.70226203       3.70393105      -9.08331013
C       -1.53624082       3.37341712      -9.88933489
Br      -2.88471399       2.83900405     -11.19260876
N       -4.89767421      -3.71056783      -5.35858886
C       -4.42942768      -4.35310353      -4.10076594
H       -3.85118022      -5.22594431      -4.42974208
C       -3.51395105      -3.40353163      -3.33707217
C       -2.17307030      -3.77521491      -3.11181453
C       -1.29709288      -2.97908377      -2.36341968
N       -0.04079757      -3.50405079      -2.01379317
C       -1.79793478      -1.79793478      -1.79793478
C       -3.10482196      -1.37594096      -2.05253481
C       -3.94727551      -2.17488205      -2.82341737
O       -5.21736643      -1.75153588      -3.09683453
C       -5.66551387      -4.88883610      -3.25932975
H       -6.14777112      -4.01903425      -2.79601832
C       -5.42340846      -5.87268513      -2.12022188
C       -4.15028291      -6.34068525      -1.75899237
C       -3.94028828      -7.13221722      -0.61756191
N       -2.64413451      -7.62765205      -0.37308896
C       -5.05718621      -7.56611340       0.11029902
C       -6.33990950      -7.15342838      -0.24305299
C       -6.50747961      -6.32385288      -1.34736116
O       -7.79632692      -6.00013892      -1.68274229
N       -6.69591850      -5.45891109      -4.18153565
H       -4.07819386      -3.36727945      -5.86046989
H       -5.39964490      -2.86157626      -5.07321798
H       -1.80807716      -4.72347881      -3.50395285
H        0.37216432      -4.11112102      -2.71521172
H        0.60802815      -2.78929121      -1.69027464
H       -3.45645962      -0.43473784      -1.63976319
H       -5.39508523      -0.93007420      -2.60659673
H       -3.28245950      -6.10026657      -2.35806396
H       -1.90843597      -6.97711501      -0.62850514
H       -2.53911702      -7.96512770       0.58120217
H       -7.20943523      -7.48201216       0.31720879
H       -7.77487168      -5.75286439      -2.63666665
H       -6.29405739      -6.31109872      -4.58226530
H       -6.69289567      -4.81964573      -4.99101162
C       -4.90766715      -8.42997294       1.25266095
C       -4.78244494      -9.15345530       2.20938905
Br      -4.57997122     -10.32326508       3.75633749
N       -5.40570344       4.82916171       3.73196575
C       -4.10440404       4.43947939       4.33941371
H       -4.37328926       3.88564208       5.24793527
C       -3.34182802       3.51644493       3.39628190
C       -3.04557515       2.20256024       3.81196435
C       -2.29374181       1.32479243       3.02106209
N       -1.87070332       0.10681277       3.58112544
C       -1.79793478       1.79793478       1.79793478
C       -2.12408076       3.07458430       1.33463267
C       -2.89684061       3.91809603       2.13063830
O       -3.24027911       5.15719572       1.66826201
C       -3.29475668       5.72994196       4.78898107
H       -2.88760567       6.19350021       3.88171782
C       -2.10770788       5.57557799       5.73302959
C       -1.67467696       4.33886952       6.23641405
C       -0.49441941       4.20856895       6.98707907
N       -0.17587138       2.94531402       7.52369013
C        0.20274840       5.37118122       7.34456776
C       -0.22059011       6.62011485       6.89568591
C       -1.36353960       6.70796118       6.10719287
O       -1.76560542       7.96747456       5.74612815
N       -4.23572004       6.74535636       5.35528884
H       -5.88612527       3.97638937       3.44342856
H       -5.17617982       5.30609530       2.85216403
H       -3.38343890       1.86223772       4.78983221
H       -2.52907133      -0.30822243       4.23331952
H       -1.54929227      -0.55791097       2.88015639
H       -1.76477232       3.40270346       0.36348488
H       -2.79149183       5.31985209       0.82041224
H       -2.24594083       3.43824024       6.05660895
H       -0.42616707       2.17320642       6.91468263
H        0.79483035       2.89316928       7.82470362
H        0.31541565       7.52458480       7.16506946
H       -2.72698362       7.89716907       5.54025004
H       -4.58448682       6.36384207       6.23909252
H       -5.06948659       6.68279782       4.75126860
C        1.38431126       5.30433225       8.16495816
C        2.37387016       5.24834623       8.85203512
Br       3.97390321       5.15782157       9.96298046
N        4.17387230      -4.15561095       5.63734765
C        4.49267343      -4.20588205       4.18474167
H        4.34857974      -5.25643324       3.90185363
C        3.51395805      -3.33708380       3.40351300
C        2.67169768      -3.94054642       2.44785564
C        1.79581378      -3.19230700       1.65147554
N        1.13587654      -3.83384339       0.58892160
C        1.79793478      -1.79793478       1.79793478
C        2.57878779      -1.17825210       2.77625784
C        3.42181681      -1.95009111       3.57366701
O        4.16622782      -1.34981436       4.54969465
C        6.02161218      -3.85117457       3.94089296
H        6.13006358      -2.76658792       4.06617219
C        6.65599108      -4.16880680       2.59151760
C        5.95792474      -4.76334090       1.52869488
C        6.52482592      -4.91313183       0.25210967
N        5.78566612      -5.59439759      -0.73518818
C        7.87177305      -4.56761875       0.07360879
C        8.60722753      -4.01139553       1.11776780
C        7.99842722      -3.82535552       2.35491091
O        8.78804594      -3.33100554       3.36015664
N        6.85926029      -4.45301401       5.02409095
H        3.18321928      -4.37299846       5.74972546
H        4.25409454      -3.16928298       5.91106162
H        2.71920540      -5.01827207       2.29803136
H        0.88205287      -4.79975387       0.77236168
H        0.35501920      -3.29088481       0.22563369
H        2.53017389      -0.10025180       2.90053497
H        4.05825693      -0.38475273       4.48874651
H        4.94854536      -5.12714273       1.66510194
H        4.78808283      -5.41455439      -0.68858111
H        6.15802189      -5.43351346      -1.66849281
H        9.64937145      -3.73802975       0.98683742
H        8.35691210      -3.60403321       4.20345742
H        6.82691455      -5.46788799       4.89261886
H        6.29504869      -4.32977942       5.87872491
C        8.52378136      -4.75741653      -1.19621875
C        9.06983833      -4.91637216      -2.25969930
Br       9.95276626      -5.17338998      -3.97925742
C       -0.00445707       0.01189536      -1.78238275
H       -0.66409135       0.67374010      -2.43557963
H        0.65740317      -0.63156657      -2.45157240
C       -0.90989263      -0.90692880      -0.91072765
C        0.90977584       0.90977584      -0.90977584
C       -0.00465871       1.77757030       0.00794375
H       -0.66225468       2.44313916      -0.64384735
H        0.64322798       2.43503045       0.67728295
C       -1.78241447       0.00034974      -0.00472694
H       -2.45427497      -0.65498947       0.64260836
H       -2.43311707       0.67328779      -0.65473579
C       -0.91132561       0.90220522       0.91563759
C       -0.01476271      -0.02253852       1.78660255
H       -0.67934791      -0.69751639       2.42135241
H        0.63392994       0.61504881       2.47327442
C        0.01484550      -1.77751727      -0.01636693
H        0.67870853      -2.42144646      -0.68295456
H       -0.62264859      -2.45592969       0.64226336
C        1.78714474       0.01002794       0.00389507
H        2.44202412       0.67113390       0.66197326
H        2.45385902      -0.65136977      -0.64189061
C        0.91606151      -0.90478549       0.90901405
