173
Properties=species:S:1:pos:R:3 pbc="F F F"
C        0.00000000       0.00000000       0.00000000
N        4.40204761       2.59509661      -4.17694657
C        3.28071522       3.33855284      -3.56943815
H        2.58099767       3.59056644      -4.37627631
C        2.50468599       2.45924901      -2.59134677
C        1.84780725       3.01867488      -1.47378261
C        1.09119329       2.24135109      -0.58221901
N        0.38308909       2.88945589       0.44679733
C        0.88762683       0.88762683      -0.88762683
C        1.50410168       0.30677437      -1.99307098
C        2.30472755       1.08709327      -2.82354254
O        2.87492277       0.43848220      -3.88647911
C        3.81180002       4.55809875      -3.00748152
C        4.24953885       5.56325870      -2.54430413
C        4.77125213       6.89224415      -1.98124905
C        5.15670409       7.94131334      -1.54651135
C        5.61496592       9.22677189      -0.98809680
H        5.28245944       9.26084568       0.05501849
C        5.06650953      10.42243239      -1.75189690
C        5.32572593      10.57933186      -3.13137154
C        4.87312991      11.69500648      -3.84895795
N        5.06371808      11.73262363      -5.24041145
C        4.05557882      12.62131967      -3.18403406
C        3.78033775      12.49110295      -1.82144736
C        4.29320211      11.40276854      -1.11660304
O        4.03144834      11.28339368       0.21939380
N        7.08041270       9.24663823      -0.96109340
H        5.10419690       2.45815291      -3.44394624
H        4.85149821       3.21585731      -4.85338928
H        1.91084084       4.08906671      -1.28736287
H        0.85688108       3.70452373       0.82303172
H        0.08200172       2.24499760       1.17511367
H        1.36331529      -0.74536398      -2.22308828
H        3.53829206       1.05432979      -4.27325289
H        5.88829352       9.80995848      -3.65717487
H        5.91676895      11.28617926      -5.56062828
H        4.93937583      12.66403336      -5.63188923
H        3.16556119      13.23455152      -1.32349991
H        3.45374603      12.01245714       0.50278555
H        7.37073451      10.14006808      -0.56851789
H        7.42978855       9.22394414      -1.91487901
C        3.50077153      13.75277590      -3.88088101
C        3.03612042      14.70037049      -4.46449033
Br       2.28481888      16.23255081      -5.40813723
N       -3.26733555      -4.85492114      -3.05183411
C       -3.53849988      -3.41541542      -3.23479090
H       -4.52834798      -3.21276177      -2.80673066
C       -2.54878003      -2.56500119      -2.44150054
C       -2.17409426      -1.27883069      -2.88733979
C       -1.30034258      -0.45725524      -2.15716558
N       -1.05853327       0.85036576      -2.61758015
C       -0.88762683      -0.88762683      -0.88762683
C       -1.25421646      -2.14237390      -0.40735667
C       -2.06755925      -2.96524728      -1.18255683
O       -2.37945343      -4.18251511      -0.63791555
C       -3.57457485      -3.14922023      -4.65358520
C       -3.60429731      -2.92982692      -5.82297746
C       -3.70047530      -2.62102321      -7.32324683
C       -3.79239786      -2.36166521      -8.49046570
C       -3.88925041      -2.01918765      -9.92139655
H       -3.19199891      -1.19400240     -10.10228533
C       -5.29744900      -1.61391379     -10.32947602
C       -6.38372492      -2.49923196     -10.15347245
C       -7.68282389      -2.17020515     -10.56406531
N       -8.73703839      -3.04565402     -10.25406076
C       -7.90953710      -0.88134797     -11.07004748
C       -6.85576184       0.01607546     -11.25320168
C       -5.56209236      -0.35845889     -10.89202244
O       -4.53070992       0.51769560     -11.08243390
N       -3.41450282      -3.15142321     -10.72221830
H       -2.39578775      -5.06218277      -3.54832553
H       -3.98614543      -5.37042544      -3.56417393
H       -2.57475753      -0.89068194      -3.82183094
H       -1.04449269       0.93512703      -3.62900743
H       -0.23937729       1.26914337      -2.18165173
H       -0.92214470      -2.48668153       0.56778664
H       -2.80004558      -4.71434482      -1.35148434
H       -6.21148218      -3.46407417      -9.67987051
H       -8.48222617      -4.02780352     -10.25354680
H       -9.57799806      -2.86037742     -10.79692295
H       -7.05271081       0.99901755     -11.66991936
H       -4.87708228       1.35320903     -11.43954437
H       -3.48723227      -2.88885608     -11.70323212
H       -4.04216968      -3.93893384     -10.58750818
C       -9.23304969      -0.45592509     -11.44545365
C      -10.34149149      -0.09963343     -11.75985632
Br     -12.13374812       0.47646005     -12.26821885
N       -4.17678396       4.40218995       2.59511688
C       -3.56944335       3.28073599       3.33852686
H       -4.37636715       2.58106838       3.59040489
C       -2.59134268       2.50469787       2.45924121
C       -1.47388798       1.84766824       3.01870852
C       -0.58232251       1.09104399       2.24139688
N        0.44657177       0.38278888       2.88953055
C       -0.88762683       0.88762683       0.88762683
C       -1.99296323       1.50425342       0.30673038
C       -2.82343296       2.30488380       1.08704660
O       -3.88625985       2.87523304       0.43839119
C       -3.00754869       3.81166048       4.55817112
C       -2.54442237       4.24926719       5.56341213
C       -1.98143994       4.77081021       6.89249519
C       -1.54676196       5.15612865       7.94163817
C       -0.98842187       5.61422455       9.22718819
H        0.05466044       5.28162114       9.26132593
C       -1.75237890       5.06572931      10.42273060
C       -3.13184433       5.32505573      10.57952927
C       -3.84957186       4.87242390      11.69509858
N       -5.24101158       5.06313391      11.73260767
C       -3.18480490       4.05472963      12.62139802
C       -1.82223125       3.77937766      12.49127914
C       -1.11724286       4.29227652      11.40305432
O        0.21874116       4.03041327      11.28377612
N       -0.96128839       7.07966710       9.24718884
H       -3.44370814       5.10428559       2.45830233
H       -4.85324208       4.85164555       3.21585716
H       -1.28755889       1.91058873       4.08912280
H        0.82277545       0.85647367       3.70467487
H        1.17491902       0.08169396       2.24511070
H       -2.22289852       1.36358240      -0.74544132
H       -4.27302935       3.53858171       1.05426368
H       -3.65752779       5.88773986       9.81015921
H       -5.56111147       5.91625375      11.28621126
H       -5.63258437       4.93874308      12.66397099
H       -1.32440603       3.16448940      13.23471719
H        0.50201532       3.45261985      12.01281309
H       -0.56876715       7.36987319      10.14068013
H       -1.91504051       7.42913082       9.22444037
C       -3.88180358       3.49988324      13.75274161
C       -4.46553998       3.03519939      14.70024187
Br      -5.40939236       2.28384490      16.23226965
N        4.61248588      -3.89605718       2.66554774
C        3.53368977      -3.23177205       3.42324438
H        4.00360759      -2.47740097       4.06683186
C        2.59514714      -2.47060077       2.48953386
C        1.23183432      -2.29597273       2.81245769
C        0.35551638      -1.56418793       1.99505907
N       -0.96244784      -1.34920230       2.43899319
C        0.88762683      -0.88762683       0.88762683
C        2.23223760      -1.02116763       0.55054180
C        3.06509594      -1.80861585       1.34165158
O        4.37187686      -1.88837046       0.93963677
C        2.89710450      -4.22840142       4.25187436
C        2.37242260      -5.04984674       4.93483235
C        1.70660687      -6.07188503       5.86625344
C        1.18185289      -6.85207462       6.61060127
C        0.51079278      -7.80105965       7.51798219
H       -0.56209734      -7.74619575       7.30418823
C        0.76937719      -7.48763551       8.98382612
C        2.08574694      -7.45603998       9.49464241
C        2.34981154      -7.21704008      10.85024273
N        3.68363662      -7.08252054      11.27059600
C        1.26955979      -6.90276452      11.68860824
C       -0.04235343      -6.92391004      11.21133144
C       -0.28237527      -7.22400533       9.87094363
O       -1.56810149      -7.25478937       9.40876035
N        0.93388657      -9.16537114       7.18888661
H        4.18481167      -4.67112589       2.15035849
H        5.23170623      -4.34589412       3.34314445
H        0.83165019      -2.72784806       3.72777217
H       -1.35180215      -2.12508081       2.96509443
H       -1.57821835      -1.04091962       1.68918437
H        2.64440456      -0.51311227      -0.31647724
H        4.79107262      -2.60106287       1.47373925
H        2.92258988      -7.61574526       8.81709172
H        4.34581308      -7.65751325      10.76025016
H        3.79087137      -7.16489331      12.27953375
H       -0.86362440      -6.70158779      11.88564923
H       -2.17665822      -7.01258156      10.12749428
H        0.45466052      -9.79997492       7.82468502
H        1.92694382      -9.25998186       7.38168602
C        1.47927197      -6.57914398      13.07601249
C        1.65490591      -6.30811178      14.23796355
Br       1.93889115      -5.86987563      16.11674013
