186
Properties=species:S:1:pos:R:3 pbc="F F F"
N        5.31195164       3.50500064      -5.08685059
C        4.19061924       4.24845686      -4.47934217
H        3.49090169       4.50047046      -5.28618033
C        3.41459001       3.36915304      -3.50125079
C        2.75771128       3.92857890      -2.38368663
C        2.00109731       3.15125512      -1.49212303
N        1.29299311       3.79935992      -0.46310670
C        1.79753086       1.79753086      -1.79753086
C        2.41400571       1.21667840      -2.90297501
C        3.21463157       1.99699729      -3.73344656
O        3.78482680       1.34838622      -4.79638314
C        4.72170404       5.46800277      -3.91738554
C        5.15944288       6.47316273      -3.45420816
C        5.68115615       7.80214818      -2.89115307
C        6.06660812       8.85121736      -2.45641537
C        6.52486994      10.13667591      -1.89800083
H        6.19236347      10.17074971      -0.85488553
C        5.97641355      11.33233642      -2.66180092
C        6.23562995      11.48923588      -4.04127557
C        5.78303394      12.60491051      -4.75886198
N        5.97362211      12.64252765      -6.15031548
C        4.96548284      13.53122369      -4.09393809
C        4.69024178      13.40100697      -2.73135138
C        5.20310614      12.31267256      -2.02650707
O        4.94135237      12.19329771      -0.69051023
Br       4.23279151      15.02545095      -5.01421027
N        7.99031672      10.15654226      -1.87099743
H        6.01410092       3.36805694      -4.35385027
H        5.76140223       4.12576134      -5.76329330
H        2.82074486       4.99897074      -2.19726689
H        1.76678511       4.61442776      -0.08687230
H        0.99190574       3.15490162       0.26520965
H        2.27321931       0.16454005      -3.13299231
H        4.44819609       1.96423381      -5.18315692
H        6.79819754      10.71986250      -4.56707889
H        6.82667297      12.19608328      -6.47053230
H        5.84927986      13.57393739      -6.54179326
H        4.07546522      14.14445555      -2.23340393
H        4.36365005      12.92236117      -0.40711847
H        8.28063853      11.04997211      -1.47842191
H        8.33969257      10.13384817      -2.82478304
N       -3.60083027      -5.56155204      -4.74142056
C       -4.34306930      -4.43704929      -4.13829969
H       -5.02620875      -4.86025352      -3.39109022
C       -3.40359589      -3.50430079      -3.37709715
C       -3.68609568      -2.12613307      -3.25774807
C       -2.86394117      -1.25275180      -2.52778249
N       -3.27015082       0.08539888      -2.37070779
C       -1.79753086      -1.79753086      -1.79753086
C       -1.50159157      -3.15609808      -1.87596946
C       -2.29422091      -3.98878805      -2.66206648
O       -1.93389934      -5.30986976      -2.68582705
C       -5.11708643      -3.80769806      -5.18230786
C       -5.75503147      -3.28897922      -6.04280307
C       -6.62992214      -2.62794522      -7.11659005
C       -7.33052686      -2.10577744      -7.93793655
C       -8.18359898      -1.43783413      -8.93811357
H       -7.93582248      -0.37121294      -8.91096329
C       -9.66669449      -1.63803854      -8.66581786
C      -10.22214500      -2.93533155      -8.60866486
C      -11.59288508      -3.14708576      -8.40683557
N      -12.06189784      -4.46129836      -8.24326903
C      -12.40429461      -2.03025357      -8.15609644
C      -11.88283576      -0.73597291      -8.20379146
C      -10.52611506      -0.54979124      -8.46637947
O      -10.02029899       0.71849753      -8.52335884
Br     -14.25770016      -2.23308750      -7.78166507
N       -7.82477089      -1.91692336     -10.27616216
H       -3.04669452      -5.17707188      -5.51224172
H       -4.28386165      -6.17319447      -5.19340076
H       -4.57296664      -1.71116332      -3.73285253
H       -3.75742965       0.46537481      -3.17603032
H       -2.51050686       0.68650188      -2.05759273
H       -0.66583829      -3.57891397      -1.32599940
H       -2.45834943      -5.73518268      -3.40205471
H       -9.56822581      -3.79861416      -8.71829896
H      -11.55566042      -5.15861065      -8.77901748
H      -13.07065952      -4.53842903      -8.35592195
H      -12.53608062       0.11375064      -8.03099471
H      -10.72569385       1.35784772      -8.32528356
H       -8.42319787      -1.43887292     -10.94696176
H       -8.04760704      -2.90581377     -10.34490296
N       -4.81505663       5.51660873       3.57213750
C       -4.48222260       4.22713815       4.20905752
H       -5.40352491       3.63197696       4.24205062
C       -3.49250798       3.43386053       3.35862532
C       -2.57055018       2.54555988       3.95386676
C       -1.67860771       1.77104017       3.19482759
N       -0.86371257       0.83438595       3.85736120
C       -1.79753086       1.79753086       1.79753086
C       -2.70968735       2.64724373       1.17672803
C       -3.53643518       3.45512274       1.95351751
O       -4.40272003       4.26197517       1.26490095
C       -4.04818853       4.49990050       5.55900332
C       -3.69044426       4.72472629       6.67164321
C       -3.27331774       4.97366175       8.12747792
C       -2.95706158       5.14582243       9.27135684
C       -2.54621634       5.33908748      10.67424286
H       -1.57387349       4.84935849      10.79476673
C       -3.54972473       4.76061307      11.66021309
C       -4.89038893       5.20475733      11.67099514
C       -5.82371758       4.72367521      12.59941362
N       -7.16694480       5.11822593      12.48129451
C       -5.42243407       3.69872681      13.46948374
C       -4.10451131       3.23794217      13.48014664
C       -3.17986947       3.77637860      12.58603769
O       -1.88786101       3.33143588      12.60586341
Br      -6.64923605       2.92425827      14.69895841
N       -2.32890278       6.76748199      10.92147163
H       -3.98334874       6.11022188       3.64243751
H       -5.51301606       5.97811932       4.15932148
H       -2.54340352       2.43713587       5.03644310
H       -0.55726119       1.13297409       4.77784989
H       -0.09169486       0.51337123       3.27653162
H       -2.79261121       2.68377689       0.09436356
H       -4.78794094       4.88931593       1.91832994
H       -5.21317738       5.93794257      10.93401898
H       -7.29936492       6.06170707      12.13221656
H       -7.70928048       4.93310249      13.32262753
H       -3.81194495       2.46131924      14.18006050
H       -1.79830881       2.62584933      13.26897155
H       -2.04271348       6.87352357      11.89279550
H       -3.21327131       7.25855927      10.82649319
N        5.05185461      -3.50995567       5.34199259
C        4.15999447      -4.29367284       4.46475096
H        3.40523233      -4.76679116       5.10552900
C        3.39527640      -3.38415780       3.50555964
C        2.99817887      -3.84157384       2.23022411
C        2.25689820      -3.04297171       1.34460555
N        1.81178611      -3.60840236       0.13527126
C        1.79753086      -1.79753086       1.79753086
C        2.15336995      -1.32281389       3.05747527
C        2.94659340      -2.10840669       3.89007534
O        3.25216903      -1.56702925       5.11039787
C        4.95327463      -5.32133274       3.83248499
C        5.60711786      -6.16833536       3.31136053
C        6.40903163      -7.30405686       2.66136892
C        7.01492361      -8.20578480       2.15353245
C        7.74717630      -9.30849965       1.50387074
H        7.57207259      -9.21967294       0.42625318
C        7.29827348     -10.67586500       1.99641241
C        7.38600264     -11.01566083       3.36447793
C        7.02427458     -12.28415402       3.83837782
N        7.02405858     -12.51881563       5.22359102
C        6.46667958     -13.19527067       2.92869437
C        6.36525557     -12.88648775       1.57085681
C        6.78852028     -11.63842602       1.11533946
O        6.69834434     -11.34265719      -0.21584123
Br       5.86421969     -14.90509935       3.50313369
N        9.18611824      -9.12080492       1.71093324
H        5.81732377      -3.16084585       4.75783851
H        5.49751066      -4.16339312       5.98955309
H        3.25809051      -4.84877026       1.91012172
H        2.45819179      -4.27867607      -0.26878269
H        1.51446504      -2.90292007      -0.53578739
H        1.81438992      -0.35123905       3.40512270
H        3.94614787      -2.13938013       5.51005882
H        7.73897677     -10.27075808       4.07540408
H        7.74138043     -12.01614574       5.73576238
H        6.99851321     -13.50927107       5.45722622
H        5.95323135     -13.61777058       0.88232276
H        6.29054437     -12.08933543      -0.68675011
H        9.66813189      -9.89040295       1.25049770
H        9.39189993      -9.20401962       2.70240422
C       -0.00445707       0.01189536      -1.78238275
H       -0.66409135       0.67374010      -2.43557963
H        0.65740317      -0.63156657      -2.45157240
C       -0.90989263      -0.90692880      -0.91072765
C        0.90977584       0.90977584      -0.90977584
C       -0.00465871       1.77757030       0.00794375
H       -0.66225468       2.44313916      -0.64384735
H        0.64322798       2.43503045       0.67728295
C       -1.78241447       0.00034974      -0.00472694
H       -2.45427497      -0.65498947       0.64260836
H       -2.43311707       0.67328779      -0.65473579
C       -0.91132561       0.90220522       0.91563759
C       -0.01476271      -0.02253852       1.78660255
H       -0.67934791      -0.69751639       2.42135241
H        0.63392994       0.61504881       2.47327442
C        0.01484550      -1.77751727      -0.01636693
H        0.67870853      -2.42144646      -0.68295456
H       -0.62264859      -2.45592969       0.64226336
C        1.78714474       0.01002794       0.00389507
H        2.44202412       0.67113390       0.66197326
H        2.45385902      -0.65136977      -0.64189061
C        0.91606151      -0.90478549       0.90901405
