178
Properties=species:S:1:pos:R:3 pbc="F F F"
C        1.83743710       1.83743710      -1.83743710
H        2.42282051       2.43850475      -1.12991216
C        0.91786414       2.74356868      -2.63172494
C        0.39231686       2.38068078      -3.88208856
C       -0.43256045       3.25633190      -4.59217704
C       -0.75837916       4.50036887      -4.05792714
C       -0.26339513       4.86943762      -2.81051908
C        0.56707608       3.99792258      -2.10235237
C        2.79461055       0.92885782      -2.62432217
C        3.67973870       1.68413482      -3.47945292
C        4.40927230       2.30664056      -4.18424980
C        5.24781679       3.02217025      -4.99436724
C        5.97735684       3.64467252      -5.69917622
C        6.86247854       4.39995299      -6.55429488
C        6.16945324       5.65136117      -7.11211116
H        5.32376357       5.35123078      -7.74315356
C        5.71233453       6.65536026      -6.07287154
C        4.35267828       7.00081239      -5.99790030
C        3.89290630       7.89003209      -5.02502726
C        4.78460520       8.44944070      -4.11359246
C        6.13650320       8.11949833      -4.17404574
C        6.59816973       7.22687779      -5.14455972
H        0.61952265       1.41535285      -4.32679001
H       -0.82169639       2.96527357      -5.56394160
H       -1.40105567       5.17923126      -4.61143461
H       -0.52218044       5.83622036      -2.38683540
H        0.94179895       4.30857967      -1.12870751
H        3.39248251       0.33710309      -1.91901670
H        2.23684605       0.19744098      -3.22224958
H        7.19370926       3.76399265      -7.38504119
H        7.77095524       4.67060783      -6.00213708
H        3.63415154       6.56927374      -6.69133905
H        2.83646966       8.14156974      -4.97569383
H        4.42623170       9.14041791      -3.35529458
H        6.83308844       8.55514895      -3.46287299
H        7.65854772       6.98470561      -5.16683688
C        7.05856520       6.31330763      -8.03129929
C        7.80319647       6.86768778      -8.80111934
Br       9.00720225       7.76407361     -10.04585326
C       -1.83743710      -1.83743710      -1.83743710
H       -1.62091791      -1.50846007      -2.86185944
C       -3.27928307      -1.51698832      -1.49688636
C       -3.98474062      -2.18624110      -0.48410447
C       -5.32077788      -1.87624350      -0.21892712
C       -5.96780496      -0.88274988      -0.94936202
C       -5.27869743      -0.19430668      -1.94355746
C       -3.94492006      -0.50779992      -2.21463106
C       -1.37556987      -3.29419763      -1.67802303
C       -2.15052738      -4.20133578      -2.49146328
C       -2.78924706      -4.94900248      -3.16191312
C       -3.52341551      -5.80839190      -3.93254687
C       -4.16213821      -6.55607232      -4.60299505
C       -4.93709270      -7.46319675      -5.41643696
C       -6.39784593      -7.00429561      -5.53078403
H       -6.86429839      -7.01592530      -4.53792421
C       -6.60214828      -5.65282411      -6.18559395
C       -7.24926013      -4.63053351      -5.47159734
C       -7.41546082      -3.36216243      -6.03034241
C       -6.93975627      -3.09622710      -7.31165498
C       -6.29699765      -4.09828238      -8.03476725
C       -6.12629336      -5.36731471      -7.47599916
H       -3.51012724      -2.96224485       0.11070659
H       -5.85629107      -2.41151616       0.56028844
H       -7.00653006      -0.64253120      -0.74054893
H       -5.77803169       0.58725659      -2.51010022
H       -3.42679054       0.04436308      -2.99665868
H       -0.31752553      -3.37058766      -1.96048912
H       -1.42235066      -3.60674206      -0.62744389
H       -4.90228530      -8.46673583      -4.97372198
H       -4.47867113      -7.55629996      -6.40872907
H       -7.62032931      -4.80961521      -4.46481981
H       -7.91200057      -2.57972755      -5.46200512
H       -7.06781351      -2.10830366      -7.74582701
H       -5.92495289      -3.89156945      -9.03458803
H       -5.61801900      -6.13009335      -8.06197786
C       -7.14612920      -7.98996363      -6.26707928
C       -7.77281644      -8.81546060      -6.88372655
Br      -8.78611671     -10.15021939      -7.88079302
C       -1.83743710       1.83743710       1.83743710
H       -1.62590141       1.50390756       2.86142845
C       -3.27918521       1.52355321       1.49041933
C       -3.97844677       2.19911210       0.47752732
C       -5.31462687       1.89501292       0.20630872
C       -5.96798158       0.90123538       0.93069991
C       -5.28507177       0.20661476       1.92487504
C       -3.95116043       0.51419622       2.20199439
C       -1.36964289       3.29306175       1.68508589
C       -2.14425707       4.20005689       2.49901248
C       -2.78269381       4.94760567       3.16986318
C       -3.51653703       5.80685958       3.94095767
C       -4.15497674       6.55442210       4.61180675
C       -4.92958795       7.46140350       5.42573496
C       -6.39242670       7.00746936       5.53302951
H       -6.85517314       7.02446061       4.53851415
C       -6.60409781       5.65436562       6.18210290
C       -7.25232264       4.63709260       5.46197573
C       -7.42523382       3.36730035       6.01543149
C       -6.95523114       3.09491426       7.29749295
C       -6.31146731       4.09193481       8.02664516
C       -6.13405009       5.36237180       7.47318534
H       -3.49880114       2.97554004      -0.11267568
H       -5.84529836       2.43511038      -0.57288996
H       -7.00680507       0.66561222       0.71719290
H       -5.78935425      -0.57517785       2.48669891
H       -3.43794472      -0.04273766       2.98387908
H       -0.31237294       3.36451701       1.97171235
H       -1.41140644       3.60962970       0.63550047
H       -4.88946755       8.46642549       4.98685007
H       -4.47448584       7.54917540       6.42003891
H       -7.61902132       4.82123334       4.45450967
H       -7.92254488       2.58879066       5.44239770
H       -7.08851135       2.10588251       7.72755032
H       -5.94386886       3.88018515       9.02705637
H       -5.62514169       6.12111755       8.06383096
C       -7.13979465       7.99317818       6.27019928
C       -7.76571532       8.81870931       6.88757897
Br      -8.77777609      10.15352332       7.88582971
C        1.83743710      -1.83743710       1.83743710
H        2.50764738      -2.34886624       1.13472379
C        0.93333708      -2.85406955       2.50575113
C        0.30403432      -2.61347691       3.73757497
C       -0.50245493      -3.58779994       4.33060350
C       -0.70602009      -4.81032183       3.69561513
C       -0.10690608      -5.05925176       2.46421589
C        0.70531392      -4.08881700       1.87322011
C        2.67638764      -0.92547032       2.74593257
C        3.55446310      -1.67925449       3.60960885
C        4.27818438      -2.30052897       4.32144931
C        5.11004806      -3.01464380       5.13966242
C        5.83377475      -3.63591524       5.85151559
C        6.71184480      -4.38970244       6.71517916
C        6.07250680      -5.71900013       7.14141864
H        5.16896501      -5.51871319       7.73046970
C        5.75431218      -6.67608644       6.01016771
C        4.42957170      -7.10285132       5.81896796
C        4.09648579      -7.95044506       4.76103481
C        5.08195197      -8.38643709       3.87924930
C        6.40098395      -7.97460880       4.05445452
C        6.73587306      -7.12334342       5.11039076
H        0.43453891      -1.66859132       4.25853528
H       -0.97294054      -3.39057759       5.28988173
H       -1.33462098      -5.56609480       4.15813638
H       -0.27010836      -6.00908700       1.96189668
H        1.16293094      -4.30635302       0.90980218
H        3.27625221      -0.24879834       2.12355176
H        2.03174020      -0.27489815       3.34989825
H        6.94371907      -3.79270605       7.60631799
H        7.67073939      -4.56204487       6.21091590
H        3.63947487      -6.76783478       6.48745468
H        3.06543165      -8.26585563       4.62244596
H        4.82217621      -9.04497934       3.05478863
H        7.17067165      -8.31391136       3.36652737
H        7.77325200      -6.81512648       5.22171173
C        6.94393359      -6.38405405       8.07518448
C        7.67375353      -6.94103670       8.85721337
Br       8.85381064      -7.84163054      10.12168794
C       -0.00445707       0.01189536      -1.78238275
H       -0.66409135       0.67374010      -2.43557963
H        0.65740317      -0.63156657      -2.45157240
C       -0.90989263      -0.90692880      -0.91072765
C        0.90977584       0.90977584      -0.90977584
C       -0.00465871       1.77757030       0.00794375
H       -0.66225468       2.44313916      -0.64384735
H        0.64322798       2.43503045       0.67728295
C       -1.78241447       0.00034974      -0.00472694
H       -2.45427497      -0.65498947       0.64260836
H       -2.43311707       0.67328779      -0.65473579
C       -0.91132561       0.90220522       0.91563759
C       -0.01476271      -0.02253852       1.78660255
H       -0.67934791      -0.69751639       2.42135241
H        0.63392994       0.61504881       2.47327442
C        0.01484550      -1.77751727      -0.01636693
H        0.67870853      -2.42144646      -0.68295456
H       -0.62264859      -2.45592969       0.64226336
C        1.78714474       0.01002794       0.00389507
H        2.44202412       0.67113390       0.66197326
H        2.45385902      -0.65136977      -0.64189061
C        0.91606151      -0.90478549       0.90901405
