133
Properties=species:S:1:pos:R:3 pbc="F F F"
C        0.00000000       0.00000000       0.00000000
C        0.91960548       0.91960548      -0.91960548
C        1.41269211       2.16379787      -0.15447895
H        0.50956067       2.58225702       0.31550080
C        1.92442306       3.25279360      -1.16574395
H        1.18955993       3.27359712      -1.98536606
C        3.26730096       2.91586302      -1.81077217
C        3.29699441       2.18863796      -3.01218892
C        4.50656069       1.88117429      -3.63733373
C        5.70984944       2.30379857      -3.07822236
C        5.70081998       3.02092493      -1.88624105
C        4.49228991       3.31670892      -1.25279389
C        1.85392436       4.65934882      -0.54231361
Br       1.93361522       6.04864876      -1.91813028
C        2.38165224       1.87114954       0.99222476
C        3.28598608       0.79735139       0.96371272
C        4.13402679       0.54222564       2.04479833
C        4.11116930       1.37205161       3.16325278
C        3.23668755       2.44971708       3.20297706
C        2.37345450       2.69424902       2.13126634
H        0.26619958       1.20084495      -1.75216603
H        1.71553129       0.28073317      -1.30833148
H        2.37146867       1.86234664      -3.48479667
H        4.51070287       1.31915675      -4.56845123
H        6.65098690       2.07659988      -3.57027765
H        6.63783126       3.35380273      -1.44465212
H        4.53178281       3.86537069      -0.31405009
H        0.89061260       4.82628063      -0.04877059
H        2.65233840       4.88353595       0.16828892
H        3.35093611       0.13450178       0.10605153
H        4.81280276      -0.30764673       2.01013061
H        4.77271644       1.16973679       4.00095026
H        3.21693502       3.09897323       4.07499304
H        1.68543207       3.53407238       2.20384725
C       -0.91960548      -0.91960548      -0.91960548
C       -1.70151952      -0.08009033      -1.94935908
H       -2.14952132       0.73787903      -1.36467461
C       -2.90224481      -0.91390215      -2.52681364
H       -3.35609226      -1.42736724      -1.66506361
C       -2.48085930      -2.01332328      -3.49975358
C       -2.18884687      -3.29759663      -3.01137780
C       -1.81969851      -4.32934552      -3.87602468
C       -1.74511917      -4.09935404      -5.24739716
C       -2.02598028      -2.83271030      -5.74929539
C       -2.38151804      -1.79643139      -4.88384329
C       -4.01157637       0.01339805      -3.05740847
Br      -5.70621347      -0.94648295      -3.24769785
C       -0.83861743       0.59481015      -3.01676974
C        0.35184270       0.02677579      -3.49824324
C        1.13081483       0.68881792      -4.45108684
C        0.71981364       1.91901435      -4.95879612
C       -0.46356818       2.48874940      -4.50860877
C       -1.23342189       1.83764651      -3.54066180
H       -1.59738989      -1.40931279      -0.21250788
H       -0.26873981      -1.68095824      -1.35489788
H       -2.25863983      -3.51385617      -1.94611598
H       -1.59930872      -5.31829210      -3.48071002
H       -1.47073529      -4.90447158      -5.92265756
H       -1.96939592      -2.64702578      -6.81986441
H       -2.57690224      -0.81753717      -5.31676418
H       -4.23540521       0.81269374      -2.34295236
H       -3.80231774       0.46447057      -4.02973825
H        0.70256334      -0.93794300      -3.14400670
H        2.06042607       0.23990382      -4.79535531
H        1.32870727       2.42950488      -5.69971512
H       -0.78655298       3.44903870      -4.90340093
H       -2.14392111       2.32193288      -3.19366897
C       -0.91960548       0.91960548       0.91960548
C       -1.86476663       0.07203383       1.79416847
H       -2.32440545      -0.64647522       1.09838667
C       -3.03826353       0.96261214       2.34208494
H       -3.36270232       1.58904867       1.49677212
C       -2.61742247       1.92929093       3.44722276
C       -2.17091851       3.21755212       3.10935067
C       -1.79749279       4.13138820       4.09618772
C       -1.87289658       3.77796994       5.44100385
C       -2.30809766       2.50497402       5.79491428
C       -2.66833919       1.58542896       4.80802456
C       -4.26857482       0.10195223       2.68505973
Br      -5.88448374       1.19760783       2.81830271
C       -1.16798177      -0.77088689       2.86348214
C        0.01621087      -0.36148892       3.49732454
C        0.64168571      -1.17384855       4.44698835
C        0.08000791      -2.39890507       4.79888111
C       -1.10026642      -2.81335656       4.19651770
C       -1.71621456      -2.01140507       3.23162769
H       -1.48279878       1.53029404       0.20611774
H       -0.24954075       1.57568512       1.47937006
H       -2.12086616       3.53049921       2.06724661
H       -1.45628332       5.12548770       3.81653982
H       -1.59511352       4.49232056       6.21043035
H       -2.36911453       2.22314076       6.84403081
H       -2.98743369       0.59569404       5.12807586
H       -4.49201369      -0.60801926       1.88166940
H       -4.19177996      -0.44903788       3.62484334
H        0.48071111       0.59272846       3.26736901
H        1.56985864      -0.84612051       4.91100458
H        0.56988922      -3.02661580       5.53800799
H       -1.54070737      -3.76929831       4.46950615
H       -2.62822572      -2.37578513       2.76321662
C        0.91960548      -0.91960548       0.91960548
C        0.82848205      -2.40071340       0.50177348
H       -0.25008105      -2.60525240       0.42114555
C        1.36353244      -3.32231727       1.65711090
H        0.94923542      -2.90939191       2.58989579
C        2.88195572      -3.29238951       1.81959092
C        3.46938931      -2.34934623       2.67908575
C        4.85224196      -2.30822074       2.86460601
C        5.67396009      -3.21621364       2.20169664
C        5.11090491      -4.15441075       1.34267031
C        3.72911105      -4.18714704       1.14553462
C        0.76297549      -4.73691260       1.55569870
Br       0.94802097      -5.70765039       3.24472292
C        1.41670710      -2.71790139      -0.87403147
C        2.51035838      -2.01850512      -1.40923875
C        2.99998411      -2.31549243      -2.68402245
C        2.42108321      -3.33497423      -3.43608931
C        1.35025090      -4.05019996      -2.91702330
C        0.84621058      -3.74084736      -1.65062077
H        0.52204800      -0.76845218       1.92871038
H        1.92629826      -0.49795165       0.88034602
H        2.85135233      -1.63968772       3.22757192
H        5.28984271      -1.57272954       3.53573860
H        6.74887828      -3.19389423       2.35509193
H        5.74788580      -4.86641134       0.82198898
H        3.33221690      -4.92627174       0.45271496
H       -0.31837722      -4.69722630       1.38681475
H        1.21223030      -5.36879550       0.78655962
H        3.00404419      -1.22771630      -0.85237413
H        3.83559227      -1.74715471      -3.08772156
H        2.80563795      -3.56228730      -4.42642228
H        0.89659288      -4.84651106      -3.50218874
H       -0.00768524      -4.30603454      -1.28269210
