170
Properties=species:S:1:pos:R:3 pbc="F F F"
C        1.83024513       1.83024513      -1.83024513
C        1.87858712       3.27215663      -1.31082649
H        2.10332716       3.23616872      -0.23573231
C        3.00779187       4.03249446      -1.99673596
C        3.01126246       4.24842668      -3.38584925
C        4.06402324       4.93110648      -3.99793498
C        5.12537560       5.40844230      -3.23269111
C        5.13443359       5.20688547      -1.85445392
C        4.08312952       4.52437655      -1.23919447
C        0.61266649       3.94802961      -1.47137953
C       -0.43072564       4.50508719      -1.60370958
C       -1.82186721       5.11386012      -1.79048320
C       -2.94183323       5.51694883      -1.94979792
C       -4.33678698       5.96582493      -2.15784631
H       -4.36143942       7.04303767      -1.94237759
C       -5.27345252       5.25726488      -1.18650828
C       -5.45477517       3.86367798      -1.21950503
C       -6.31431348       3.23432779      -0.31671310
C       -7.00146632       3.98589181       0.63318756
C       -6.82938193       5.36707988       0.68269566
C       -5.97102603       5.99917582      -0.21941173
C       -4.72766378       5.76257780      -3.62662321
Br      -6.37193805       6.72144681      -4.06731655
H        1.42196067       1.75029819      -2.84309702
H        2.81711023       1.35620470      -1.80710430
H        2.18914749       3.89258283      -4.00358837
H        4.05388782       5.09353041      -5.07272601
H        5.94364434       5.94142026      -3.70983345
H        5.96071346       5.58329320      -1.25663874
H        4.11205773       4.38115156      -0.16085662
H       -4.92007242       3.25161569      -1.94265430
H       -6.44356633       2.15560965      -0.35227945
H       -7.66814858       3.49493718       1.33708950
H       -7.36301256       5.95403188       1.42578000
H       -5.85254572       7.07905792      -0.16031104
H       -3.97092965       6.17327831      -4.30387162
H       -4.89552974       4.71485522      -3.89448185
C       -1.83024513      -1.83024513      -1.83024513
C       -1.20861772      -3.21675280      -2.03619973
H       -0.91851491      -3.60628151      -1.05043178
C       -2.24489768      -4.16701433      -2.62511028
C       -2.81653145      -3.93981923      -3.88918770
C       -3.77791892      -4.81184340      -4.40330238
C       -4.18004318      -5.92196903      -3.66449681
C       -3.61964031      -6.16373184      -2.41240083
C       -2.65798093      -5.29345152      -1.89526808
C       -0.01885078      -3.16066411      -2.85256074
C        0.96177211      -3.11442846      -3.52541477
C        2.22496813      -2.93722310      -4.37022114
C        3.21216232      -2.71882906      -5.01824678
C        4.42166290      -2.39930099      -5.80924617
H        4.85853072      -3.35650095      -6.12600562
C        5.44146521      -1.66447013      -4.94731572
C        5.16727505      -0.40162583      -4.39405706
C        6.11447211       0.25179485      -3.60299437
C        7.34604970      -0.34708187      -3.35020576
C        7.63185644      -1.60018063      -3.88667809
C        6.68677493      -2.25557136      -4.67876509
C        4.02122362      -1.61694506      -7.06581579
Br       5.48479578      -1.54357774      -8.35804336
H       -1.97207105      -1.27814520      -2.76513964
H       -2.78859131      -1.88823480      -1.30359312
H       -2.51232312      -3.08421962      -4.48877596
H       -4.21080965      -4.62631542      -5.38301917
H       -4.92722887      -6.60132813      -4.06634104
H       -3.93034683      -7.03261770      -1.83768088
H       -2.23359167      -5.50470941      -0.91576483
H        4.20817882       0.08253780      -4.56491419
H        5.88834364       1.22721587      -3.17988227
H        8.08156347       0.16100844      -2.73227102
H        8.59171471      -2.06962700      -3.68732703
H        6.93301085      -3.23401394      -5.08582015
H        3.19851058      -2.10649690      -7.59823395
H        3.73091541      -0.58139162      -6.86333112
C       -1.83024513       1.83024513       1.83024513
C       -1.31064283       3.27208176       1.87884566
H       -1.12901193       3.60028920       0.84592707
C       -2.37376792       4.18618100       2.47707337
C       -2.82739543       4.02078859       3.79735437
C       -3.81534630       4.85667931       4.32103909
C       -4.36201206       5.86877844       3.53571851
C       -3.91983232       6.04877927       2.22716139
C       -2.93198300       5.21439450       1.70032303
C       -0.06185359       3.37347574       2.59674630
C        0.96741667       3.45703940       3.18844839
C        2.30126714       3.44597240       3.93777085
C        3.34930929       3.35691581       4.51730699
C        4.63739832       3.19593329       5.22834929
H        5.01701237       4.20623678       5.43475144
C        5.64578627       2.47227088       4.34383603
C        5.43498408       1.15116140       3.91223052
C        6.36991279       0.50871155       3.09792864
C        7.52549998       1.17643320       2.70030472
C        7.74737349       2.48736133       3.11501445
C        6.81446311       3.13201325       3.93001138
C        4.39886859       2.49121027       6.56919554
Br       5.95722889       2.63522092       7.73883327
H       -1.85504524       1.34754649       2.81276416
H       -2.82726308       1.77204393       1.38111222
H       -2.40946327       3.24278227       4.43307316
H       -4.15606583       4.71987950       5.34419891
H       -5.12980357       6.52023141       3.94486306
H       -4.34342744       6.84153638       1.61568160
H       -2.60180635       5.37613653       0.67612303
H        4.53455425       0.61136257       4.19738925
H        6.19315509      -0.51245388       2.76993174
H        8.25126700       0.67656588       2.06440023
H        8.64760866       3.01025518       2.80259280
H        7.00973778       4.15638783       4.24017319
H        3.58148817       2.95903168       7.12867676
H        4.17998486       1.42352444       6.47026775
C        1.83024513      -1.83024513       1.83024513
C        1.54189874      -3.31870975       1.60096175
H        1.55561541      -3.50207984       0.51753295
C        2.64454473      -4.16300568       2.22947188
C        2.88359020      -4.14723873       3.61470946
C        3.91049978      -4.91349129       4.16907363
C        4.71061087      -5.70619239       3.34970575
C        4.48347239      -5.73654242       1.97575817
C        3.45732569      -4.97125382       1.41812102
C        0.23900631      -3.69974872       2.09332060
C       -0.83485737      -4.01379968       2.49912882
C       -2.24288492      -4.30127494       3.02408609
C       -3.36058704      -4.44708860       3.43841195
C       -4.74222028      -4.57569844       3.95340610
H       -4.98278590      -5.64785502       3.95890673
C       -5.72264239      -3.86530826       3.02765478
C       -5.66556439      -2.47657291       2.81739933
C       -6.57086941      -1.84671641       1.96088040
C       -7.54259216      -2.59388404       1.29994606
C       -7.60981316      -3.97150356       1.49331189
C       -6.70623070      -4.60389668       2.34989554
C       -4.80111811      -4.06467731       5.39797803
Br      -6.46130883      -4.60029033       6.27784381
H        1.64565714      -1.50905517       2.86064358
H        2.85724233      -1.56777146       1.55540544
H        2.26644612      -3.54260832       4.27626426
H        4.08380734      -4.89429725       5.24203965
H        5.50867539      -6.30382514       3.78239751
H        5.10519255      -6.35864465       1.33680821
H        3.29839147      -5.01325710       0.34241734
H       -4.90812736      -1.87141842       3.31090651
H       -6.51399524      -0.77229107       1.80602694
H       -8.24503152      -2.10322407       0.63150657
H       -8.36602512      -4.55581080       0.97545364
H       -6.77830059      -5.68116593       2.48395790
H       -4.00374642      -4.49957853       6.01038816
H       -4.74135323      -2.97503099       5.48012958
C       -0.00445707       0.01189536      -1.78238275
H       -0.66409135       0.67374010      -2.43557963
H        0.65740317      -0.63156657      -2.45157240
C       -0.90989263      -0.90692880      -0.91072765
C        0.90977584       0.90977584      -0.90977584
C       -0.00465871       1.77757030       0.00794375
H       -0.66225468       2.44313916      -0.64384735
H        0.64322798       2.43503045       0.67728295
C       -1.78241447       0.00034974      -0.00472694
H       -2.45427497      -0.65498947       0.64260836
H       -2.43311707       0.67328779      -0.65473579
C       -0.91132561       0.90220522       0.91563759
C       -0.01476271      -0.02253852       1.78660255
H       -0.67934791      -0.69751639       2.42135241
H        0.63392994       0.61504881       2.47327442
C        0.01484550      -1.77751727      -0.01636693
H        0.67870853      -2.42144646      -0.68295456
H       -0.62264859      -2.45592969       0.64226336
C        1.78714474       0.01002794       0.00389507
H        2.44202412       0.67113390       0.66197326
H        2.45385902      -0.65136977      -0.64189061
C        0.91606151      -0.90478549       0.90901405
