178
Properties=species:S:1:pos:R:3 pbc="F F F"
C        1.83024513       1.83024513      -1.83024513
C        1.87858712       3.27215663      -1.31082649
H        2.10332716       3.23616872      -0.23573231
C        3.00779187       4.03249446      -1.99673596
C        3.01126246       4.24842668      -3.38584925
C        4.06402324       4.93110648      -3.99793498
C        5.12537560       5.40844230      -3.23269111
C        5.13443359       5.20688547      -1.85445392
C        4.08312952       4.52437655      -1.23919447
C        0.61266649       3.94802961      -1.47137953
C       -0.43072564       4.50508719      -1.60370958
C       -1.82186721       5.11386012      -1.79048320
C       -2.94183323       5.51694883      -1.94979792
C       -4.33678698       5.96582493      -2.15784631
H       -4.36143942       7.04303767      -1.94237759
C       -5.27345252       5.25726488      -1.18650828
C       -5.45477517       3.86367798      -1.21950503
C       -6.31431348       3.23432779      -0.31671310
C       -7.00146632       3.98589181       0.63318756
C       -6.82938193       5.36707988       0.68269566
C       -5.97102603       5.99917582      -0.21941173
C       -4.72766378       5.76257780      -3.62662321
H        1.42196067       1.75029819      -2.84309702
H        2.81711023       1.35620470      -1.80710430
H        2.18914749       3.89258283      -4.00358837
H        4.05388782       5.09353041      -5.07272601
H        5.94364434       5.94142026      -3.70983345
H        5.96071346       5.58329320      -1.25663874
H        4.11205773       4.38115156      -0.16085662
H       -4.92007242       3.25161569      -1.94265430
H       -6.44356633       2.15560965      -0.35227945
H       -7.66814858       3.49493718       1.33708950
H       -7.36301256       5.95403188       1.42578000
H       -5.85254572       7.07905792      -0.16031104
H       -3.97092965       6.17327831      -4.30387162
H       -4.89552974       4.71485522      -3.89448185
C       -5.93954440       6.46929370      -3.95142773
C       -6.95449443       7.06116828      -4.22345152
Br      -8.59558277       8.01817940      -4.66329098
C       -1.83024513      -1.83024513      -1.83024513
C       -1.16818710      -3.18509246      -2.10829068
H       -0.82885657      -3.59819966      -1.14817197
C       -2.19119360      -4.15118743      -2.69464127
C       -2.81612703      -3.90067987      -3.92873149
C       -3.76436211      -4.78853837      -4.44016423
C       -4.10004156      -5.93785531      -3.72861214
C       -3.48624909      -6.20289993      -2.50662396
C       -2.53757122      -5.31687921      -1.99225010
C       -0.01165484      -3.05704345      -2.96337734
C        0.94157541      -2.95149718      -3.66814935
C        2.16614968      -2.69881218      -4.54981362
C        3.12079661      -2.42196144      -5.22374869
C        4.28870228      -2.03098326      -6.04460328
H        4.74711282      -2.95990928      -6.41117939
C        5.31276923      -1.29023855      -5.19285133
C        5.01470083      -0.05844599      -4.58466268
C        5.96653528       0.60083876      -3.80410144
C        7.22679061       0.03870889      -3.61673744
C        7.53672968      -1.18351743      -4.20821454
C        6.58703999      -1.84465663      -4.98994488
C        3.81550579      -1.22005418      -7.25698883
H       -2.02534935      -1.25116171      -2.73884483
H       -2.76613993      -1.94158048      -1.27269881
H       -2.56422108      -3.01402242      -4.50707520
H       -4.23890732      -4.58458450      -5.39665242
H       -4.83703106      -6.62943867      -4.12842831
H       -3.74508384      -7.10218929      -1.95337229
H       -2.07062007      -5.54683219      -1.03661366
H        4.03359381       0.39616417      -4.70395555
H        5.72182773       1.55190138      -3.33805188
H        7.96601423       0.55122316      -3.00693650
H        8.51911847      -1.62440287      -4.05995492
H        6.85252033      -2.79856881      -5.44077476
H        2.99165831      -1.72023576      -7.77764282
H        3.49655040      -0.20352001      -7.00683773
C        4.85622591      -1.09328171      -8.24412123
C        5.72782902      -0.98710977      -9.07084461
Br       7.13713752      -0.81543873     -10.40758640
C       -1.83024513       1.83024513       1.83024513
C       -1.36711247       3.29174825       1.80270952
H       -1.23849288       3.58520245       0.75153287
C       -2.44212970       4.18752393       2.40736866
C       -2.83779931       4.05766538       3.75007370
C       -3.83749701       4.87526238       4.28030530
C       -4.45384752       5.83349370       3.47916780
C       -4.06974121       5.97796683       2.14806494
C       -3.07032601       5.16174373       1.61463079
C       -0.09673720       3.46955393       2.46578449
C        0.95032478       3.61609716       3.01229874
C        2.31132441       3.68613225       3.70766828
C        3.38355121       3.66055478       4.24790994
C        4.70337319       3.57762068       4.91263677
H        5.05000816       4.60917802       5.06480599
C        5.70515227       2.85846493       4.01700798
C        5.53083169       1.51406903       3.64517051
C        6.45871750       0.87598433       2.81946057
C        7.57062877       1.57115686       2.35070984
C        7.75576166       2.90513762       2.70562633
C        6.82982987       3.54552619       3.53186520
C        4.54478305       2.91833311       6.28798715
H       -1.79804330       1.38654336       2.83076922
H       -2.84064568       1.71595240       1.42382115
H       -2.36506719       3.32225809       4.39799341
H       -4.13297401       4.76642825       5.32074199
H       -5.23075852       6.47081299       3.89332655
H       -4.54778614       6.72885226       1.52400701
H       -2.78641099       5.29503577       0.57261915
H        4.66426607       0.95192607       3.98653757
H        6.31039537      -0.16348658       2.53820472
H        8.29082930       1.07452914       1.70599927
H        8.62176139       3.44930611       2.33769460
H        6.99582814       4.58820015       3.79445124
H        3.73145590       3.37639893       6.86127724
H        4.36504581       1.83993787       6.23891527
C        5.72042445       3.10278453       7.09881695
C        6.70502413       3.25726259       7.77788691
Br       8.29703853       3.50704054       8.87588560
C        1.83024513      -1.83024513       1.83024513
C        1.81593621      -3.28867999       1.35695404
H        2.00644988      -3.29409317       0.27468515
C        2.94232693      -4.06342702       2.03126834
C        2.98435530      -4.23529285       3.42589024
C        4.03442609      -4.93230019       4.02633842
C        5.05456820      -5.46804031       3.24390050
C        5.02495597      -5.31060025       1.86021676
C        3.97623126      -4.61391164       1.25655763
C        0.53518568      -3.91740445       1.57948550
C       -0.52042925      -4.43560147       1.76289890
C       -1.92329097      -4.99237359       2.01339349
C       -3.04964660      -5.35340491       2.22115521
C       -4.45056165      -5.74964793       2.48779798
H       -4.51631647      -6.83175818       2.30853414
C       -5.39557827      -5.04194892       1.52395000
C       -5.53153708      -3.64283508       1.51710985
C       -6.39977281      -3.01461530       0.62188491
C       -7.14103778      -3.77300430      -0.28072858
C       -7.01445490      -5.15995273      -0.29049554
C       -6.14750962      -5.79089843       0.60417271
C       -4.78660490      -5.48736077       3.96078135
H        1.45801163      -1.70498870       2.85235555
H        2.83033274      -1.38967698       1.76040951
H        2.19453827      -3.83340443       4.05737599
H        4.05428413      -5.06021471       5.10564539
H        5.87071700      -6.01210799       3.71207306
H        5.81893397      -5.73253691       1.24917454
H        3.97442314      -4.50590254       0.17374023
H       -4.95438860      -3.02599674       2.20258943
H       -6.49359527      -1.93166454       0.62625349
H       -7.81449695      -3.28304553      -0.97884947
H       -7.59038924      -5.75237261      -0.99674405
H       -6.06525445      -6.87540463       0.57667306
H       -4.02151856      -5.90093467       4.62680416
H       -4.91239033      -4.42676115       4.19943652
C       -6.00897983      -6.14346470       4.34669216
C       -7.03271884      -6.69295174       4.66989247
Br      -8.68801823      -7.58142581       5.19248003
C       -0.00445707       0.01189536      -1.78238275
H       -0.66409135       0.67374010      -2.43557963
H        0.65740317      -0.63156657      -2.45157240
C       -0.90989263      -0.90692880      -0.91072765
C        0.90977584       0.90977584      -0.90977584
C       -0.00465871       1.77757030       0.00794375
H       -0.66225468       2.44313916      -0.64384735
H        0.64322798       2.43503045       0.67728295
C       -1.78241447       0.00034974      -0.00472694
H       -2.45427497      -0.65498947       0.64260836
H       -2.43311707       0.67328779      -0.65473579
C       -0.91132561       0.90220522       0.91563759
C       -0.01476271      -0.02253852       1.78660255
H       -0.67934791      -0.69751639       2.42135241
H        0.63392994       0.61504881       2.47327442
C        0.01484550      -1.77751727      -0.01636693
H        0.67870853      -2.42144646      -0.68295456
H       -0.62264859      -2.45592969       0.64226336
C        1.78714474       0.01002794       0.00389507
H        2.44202412       0.67113390       0.66197326
H        2.45385902      -0.65136977      -0.64189061
C        0.91606151      -0.90478549       0.90901405
