149
Properties=species:S:1:pos:R:3 pbc="F F F"
C        0.00000000       0.00000000       0.00000000
C        0.92034111       0.92034111      -0.92034111
C        0.96868310       2.36225261      -0.40092247
H        1.19342314       2.32626470       0.67417171
C        2.09788785       3.12259043      -1.08683194
C        2.10135843       3.33852266      -2.47594523
C        3.15411921       4.02120246      -3.08803096
C        4.21547157       4.49853828      -2.32278709
C        4.22452957       4.29698145      -0.94454990
C        3.17322549       3.61447252      -0.32929044
C       -0.29723754       3.03812559      -0.56147551
C       -1.34062967       3.59518316      -0.69380556
C       -2.73177123       4.20395610      -0.88057918
C       -3.85173725       4.60704480      -1.03989389
C       -5.24669101       5.05592090      -1.24794229
H       -5.27134344       6.13313365      -1.03247357
C       -6.18335654       4.34736085      -0.27660426
C       -6.36467919       2.95377396      -0.30960100
C       -7.22421751       2.32442376       0.59319092
C       -7.91137034       3.07598779       1.54309158
C       -7.73928595       4.45717585       1.59259968
C       -6.88093005       5.08927179       0.69049230
C       -5.63756780       4.85267377      -2.71671918
Br      -7.28184208       5.81154279      -3.15741252
H        0.51205664       0.84039417      -1.93319300
H        1.90720620       0.44630068      -0.89720027
H        1.27924346       2.98267881      -3.09368435
H        3.14398380       4.18362638      -4.16282198
H        5.03374031       5.03151624      -2.79992943
H        5.05080944       4.67338918      -0.34673472
H        3.20215371       3.47124754       0.74904741
H       -5.82997644       2.34171166      -1.03275028
H       -7.35347035       1.24570562       0.55762458
H       -8.57805260       2.58503316       2.24699352
H       -8.27291659       5.04412785       2.33568402
H       -6.76244975       6.16915390       0.74959298
H       -4.88083368       5.26337428      -3.39396760
H       -5.80543376       3.80495120      -2.98457783
C       -0.92034111      -0.92034111      -0.92034111
C       -2.39975098      -0.53708924      -0.79501795
H       -2.47790896       0.55195229      -0.91955946
C       -3.20131246      -1.19182330      -1.91417446
C       -3.29610033      -2.58962547      -2.03010052
C       -4.01978795      -3.17039974      -3.07316494
C       -4.65931203      -2.36501871      -4.01246620
C       -4.57902681      -0.97828047      -3.90875363
C       -3.85591961      -0.39424910      -2.86681974
C       -2.93678198      -0.86919397       0.50361239
C       -3.37940386      -1.14291894       1.57396375
C       -3.83580839      -1.50548743       2.98853178
C       -4.11617223      -1.79804418       4.11901496
C       -4.41179793      -2.16695200       5.52157774
H       -5.49641909      -2.05703118       5.65918649
C       -3.70435536      -1.21742464       6.48117142
C       -2.30223995      -1.13426239       6.53780656
C       -1.67472960      -0.25354803       7.42126230
C       -2.43713854       0.55842616       8.25718652
C       -3.82750776       0.49201389       8.21020366
C       -4.45768874      -0.38838255       7.32822185
C       -4.04676400      -3.63818785       5.75312670
Br      -4.80462536      -4.30744551       7.42495763
H       -0.71524120      -1.95252610      -0.61787651
H       -0.54531227      -0.76761543      -1.93777945
H       -2.81235963      -3.23956107      -1.30368593
H       -4.08730773      -4.25257969      -3.15054474
H       -5.22402438      -2.81803504      -4.82312655
H       -5.08183896      -0.34968719      -4.63940719
H       -3.80952047       0.69125618      -2.80608955
H       -1.68334159      -1.74764598       5.88650207
H       -0.58959369      -0.19816166       7.45314465
H       -1.94795034       1.24543945       8.94252385
H       -4.42332071       1.12763115       8.86016232
H       -5.54499045      -0.42146567       7.30934495
H       -4.46715109      -4.28343269       4.97407558
H       -2.96870870      -3.81944156       5.80405500
C       -0.92034111       0.92034111       0.92034111
C       -0.79313390       0.53871409       2.40001019
H        0.27708411       0.48005500       2.64254524
C       -1.40826455       1.62812926       3.27091641
C       -2.77523606       1.94700696       3.19358330
C       -3.31608298       2.96090278       3.98636687
C       -2.50137618       3.66821036       4.86721039
C       -1.14585064       3.36105852       4.95915175
C       -0.60175498       2.34768236       4.16755112
C       -1.37676917      -0.75248147       2.67807585
C       -1.85780840      -1.81670410       2.90725475
C       -2.47427539      -3.20573734       3.08422600
C       -2.95650819      -4.30401634       3.14270959
C       -3.55246393      -5.65866742       3.16337568
H       -3.63274332      -5.95649896       4.21801942
C       -2.64208215      -6.65063603       2.44916245
C       -2.34945488      -6.53027436       1.07951525
C       -1.50863573      -7.44775928       0.44613889
C       -0.94565323      -8.49512339       1.17099603
C       -1.22135608      -8.62596343       2.52989757
C       -2.06247947      -7.71032994       3.16569992
C       -4.96629147      -5.60643435       2.57196803
Br      -5.96455394      -7.23991405       2.96247334
H       -1.93906078       0.81311264       0.53347039
H       -0.57537752       1.94257576       0.73275387
H       -3.43349406       1.40277560       2.51933697
H       -4.37514361       3.19646324       3.91882532
H       -2.92368020       4.45615230       5.48535348
H       -0.51088303       3.91020190       5.64984840
H        0.45950403       2.12505142       4.25880645
H       -2.76536927      -5.71388603       0.49300226
H       -1.28933715      -7.34151447      -0.61321198
H       -0.28929557      -9.20712929       0.67782076
H       -0.77990063      -9.44139768       3.09702429
H       -2.26204278      -7.83307409       4.22814248
H       -5.55842121      -4.79998509       3.01807208
H       -4.98222005      -5.48283923       1.48471445
C        0.92034111      -0.92034111       0.92034111
C        2.29248403      -0.27926616       1.16010799
H        2.12856823       0.76011084       1.47705873
C        3.01177292      -1.00284659       2.29269072
C        3.36468153      -2.35984678       2.19129801
C        4.00658630      -3.00968987       3.24707646
C        4.30615637      -2.31445322       4.41618735
C        3.96744044      -0.96817619       4.53044427
C        3.32525412      -0.31531913       3.47641521
C        3.09349254      -0.24986996      -0.04099894
C        3.75368886      -0.22564151      -1.03097132
C        4.50224635      -0.21577839      -2.36526069
C        5.01957045      -0.22462737      -3.44899638
C        5.61218473      -0.25001976      -4.80503230
H        6.66011183       0.06401822      -4.70182984
C        4.89804630       0.74176835      -5.71566939
C        3.53711891       0.60036681      -6.03805632
C        2.90131075       1.52371937      -6.87057604
C        3.61327287       2.60219764      -7.38954936
C        4.96110132       2.75975574      -7.07605536
C        5.59966894       1.83744998      -6.24436952
C        5.59367040      -1.68457682      -5.34642207
Br       6.73760612      -1.86903576      -6.91952864
H        0.97986166      -1.89020207       0.41558009
H        0.35849196      -1.03952595       1.85268924
H        3.14891095      -2.92186331       1.28483236
H        4.27620239      -4.05877194       3.15545783
H        4.80755944      -2.82071528       5.23691126
H        4.20520390      -0.42444523       5.44128420
H        3.07259330       0.73714090       3.58890145
H        2.95451837      -0.22546180      -5.63549467
H        1.84786732       1.40322060      -7.11003602
H        3.11696710       3.32175706      -8.03522301
H        5.51672648       3.60294187      -7.47825737
H        6.65288676       1.98245234      -6.01332325
H        5.99958964      -2.39406486      -4.61714630
H        4.59774398      -2.02853360      -5.64218232
