178
Properties=species:S:1:pos:R:3 pbc="F F F"
C        1.83694898       1.83694898      -1.83694898
H        1.70176129       2.84875896      -1.43415683
C        3.27116448       1.39355189      -1.63142410
C        3.83981074       0.32493864      -2.34295461
C        5.17384413      -0.03783899      -2.14142891
C        5.95555799       0.65175835      -1.21837821
C        5.40344977       1.70195988      -0.49049813
C        4.07167164       2.06912327      -0.69361046
C        1.28685822       1.79704641      -3.27084100
C        2.06082835       2.61900568      -4.17110311
C        2.69873617       3.29648176      -4.91311189
C        3.43197436       4.07519137      -5.76600028
C        4.06988702       4.75266057      -6.50801449
C        4.84385230       5.57462671      -7.40827118
C        3.97235236       6.13749864      -8.53951774
H        3.15805582       6.73966090      -8.11626512
C        3.41066768       5.09822983      -9.48879740
C        4.23559533       4.28227197     -10.28115916
C        3.68423158       3.31247409     -11.12175619
C        2.30443083       3.13410681     -11.17442649
C        1.47254396       3.92662524     -10.38800792
C        2.02122093       4.90179503      -9.55241071
H        3.25622031      -0.23887686      -3.06666946
H        5.60256336      -0.86056878      -2.70778844
H        6.99297873       0.36829587      -1.06408788
H        6.00970721       2.23761638       0.23543950
H        3.66261957       2.89342243      -0.11255734
H        0.24570673       2.14504025      -3.26823047
H        1.25191546       0.76755740      -3.64820738
H        5.68402253       4.99774280      -7.81416988
H        5.29056113       6.40142832      -6.84157162
H        5.31708995       4.39548563     -10.25622573
H        4.33501414       2.69331203     -11.73523605
H        1.87748560       2.37618341     -11.82571617
H        0.39598208       3.78395384     -10.42172258
H        1.35001727       5.50237290      -8.94032296
C        4.73442064       7.09999368      -9.29214994
C        5.37265282       7.90608328      -9.92247941
Br       6.40462027       9.20946199     -10.94166885
C       -1.83694898      -1.83694898      -1.83694898
H       -2.36021551      -1.13059789      -2.49386369
C       -0.91866529      -2.71596749      -2.66150769
C       -0.40073712      -3.92842788      -2.17853900
C        0.42414987      -4.72220233      -2.97938158
C        0.75428394      -4.31173304      -4.26824546
C        0.26505817      -3.10377972      -4.75718623
C       -0.56320188      -2.31107656      -3.96012693
C       -2.86982864      -2.54106387      -0.94385312
C       -3.75568956      -3.38974236      -1.70550522
C       -4.48583577      -4.08922763      -2.33326642
C       -5.32508469      -4.89324321      -3.05483811
C       -6.05522770      -5.59273761      -3.68259677
C       -6.94109182      -6.44140697      -4.44425140
C       -8.32688826      -6.53200031      -3.79048017
H       -8.76834674      -5.52982259      -3.71581250
C       -8.34958165      -7.21187143      -2.43624183
C       -7.97770497      -8.55598098      -2.26534051
C       -7.98013870      -9.14126766      -0.99705550
C       -8.34073939      -8.39158236       0.11935762
C       -8.70175235      -7.05521605      -0.03020872
C       -8.70712677      -6.47009084      -1.29820906
H       -0.63329171      -4.27588555      -1.17483564
H        0.80852247      -5.66341147      -2.59489404
H        1.39523931      -4.93120353      -4.88939826
H        0.52666624      -2.77794331      -5.76060702
H       -0.93318359      -1.37087520      -4.36454055
H       -3.46204840      -1.78544054      -0.41148850
H       -2.37453698      -3.13065917      -0.16248409
H       -6.49856221      -7.43865280      -4.55872020
H       -7.03872700      -6.03563649      -5.45919758
H       -7.68602297      -9.16410606      -3.11867229
H       -7.69724629     -10.18518806      -0.88112788
H       -8.33785996      -8.84737027       1.10584505
H       -8.97606343      -6.46615458       0.84055951
H       -8.98429675      -5.42078621      -1.38763017
C       -9.22691210      -7.22103257      -4.67861958
C       -9.98068207      -7.79809710      -5.42243634
Br     -11.19946436      -8.73116162      -6.62512513
C       -1.83694898       1.83694898       1.83694898
H       -1.62647130       2.85948411       1.49872168
C       -3.27887640       1.48542837       1.53183569
C       -3.94169861       0.41409872       2.15190667
C       -5.27971450       0.13717952       1.86054003
C       -5.97148647       0.91683363       0.93737446
C       -5.32521431       1.97158634       0.29910713
C       -3.98930429       2.25292026       0.59218082
C       -1.37030714       1.69105587       3.29338263
C       -2.14877225       2.50622266       4.19594223
C       -2.79038463       3.17809975       4.93984544
C       -3.52788109       3.95037408       5.79491083
C       -4.16949897       4.62224430       6.53881881
C       -4.94795859       5.43741796       7.44137364
C       -4.11227620       5.89059657       8.64649597
H       -3.24512190       6.46800295       8.30085699
C       -3.65976203       4.77315136       9.56478152
C       -4.56930069       3.96372832      10.26599745
C       -4.11737496       2.92184795      11.07923895
C       -2.75394993       2.66450670      11.19450750
C       -1.83903747       3.44985917      10.49828047
C       -2.28827941       4.49668294       9.69046432
H       -3.42975941      -0.21862776       2.87288125
H       -5.78199830      -0.68912369       2.35690843
H       -7.01221010       0.70001568       0.71313671
H       -5.86111342       2.57761399      -0.42684332
H       -3.50573020       3.08265571       0.08021344
H       -0.31374051       1.98027181       3.36496513
H       -1.41067140       0.64277264       3.61423620
H       -5.83861426       4.88756838       7.76975257
H       -5.31829817       6.31647715       6.89878575
H       -5.64026958       4.13805917      10.19047257
H       -4.83296849       2.30838066      11.62221308
H       -2.40439187       1.85076719      11.82422611
H       -0.77502659       3.24596891      10.58066301
H       -1.55338095       5.09041180       9.14892038
C       -4.86326375       6.85299989       9.41030062
C       -5.49221582       7.65901267      10.04998702
Br      -6.50917812       8.96226718      11.08430582
C        1.83694898      -1.83694898       1.83694898
H        2.32999793      -1.13416041       2.52051874
C        0.92071665      -2.75381317       2.62161065
C        0.44046581      -3.96621446       2.10102372
C       -0.38379309      -4.79531945       2.86590769
C       -0.75089248      -4.42085163       4.15573540
C       -0.29935983      -3.21371159       4.68155602
C        0.52821209      -2.38568812       3.92050516
C        2.90437727      -2.49844108       0.95192728
C        3.79211132      -3.34437849       1.71444733
C        4.52380129      -4.04160429       2.34292423
C        5.36482470      -4.84302294       3.06531837
C        6.09651173      -5.54025788       3.69379247
C        6.98424872      -6.38618615       4.45631533
C        8.38559472      -6.43210020       3.83167382
H        8.80620125      -5.41915497       3.78862562
C        8.45280669      -7.08106827       2.46381995
C        8.11467988      -8.42881338       2.25553319
C        8.15767321      -8.98559222       0.97519644
C        8.52570672      -8.20363430      -0.11637689
C        8.85361066      -6.86339083       0.07017563
C        8.81843149      -6.30659741       1.35039778
H        0.70243663      -4.28615574       1.09542054
H       -0.73871814      -5.73588588       2.45261529
H       -1.39127571      -5.06774856       4.74888964
H       -0.58988367      -2.91600619       5.68576158
H        0.86834259      -1.44688431       4.35337244
H        3.49109472      -1.71848834       0.44939438
H        2.43940059      -3.08115786       0.14712180
H        6.56159715      -7.39510925       4.53922882
H        7.05076861      -6.00103493       5.48175753
H        7.81810407      -9.06193804       3.08875920
H        7.90062505     -10.03258064       0.83035653
H        8.55438944      -8.63735189      -1.11235616
H        9.13362628      -6.24931075      -0.78127853
H        9.07021637      -5.25376290       1.46873386
C        9.28119007      -7.12097037       4.72440382
C       10.03125118      -7.69789914       5.47206520
Br      11.24403655      -8.63074416       6.68097041
C       -0.00445707       0.01189536      -1.78238275
H       -0.66409135       0.67374010      -2.43557963
H        0.65740317      -0.63156657      -2.45157240
C       -0.90989263      -0.90692880      -0.91072765
C        0.90977584       0.90977584      -0.90977584
C       -0.00465871       1.77757030       0.00794375
H       -0.66225468       2.44313916      -0.64384735
H        0.64322798       2.43503045       0.67728295
C       -1.78241447       0.00034974      -0.00472694
H       -2.45427497      -0.65498947       0.64260836
H       -2.43311707       0.67328779      -0.65473579
C       -0.91132561       0.90220522       0.91563759
C       -0.01476271      -0.02253852       1.78660255
H       -0.67934791      -0.69751639       2.42135241
H        0.63392994       0.61504881       2.47327442
C        0.01484550      -1.77751727      -0.01636693
H        0.67870853      -2.42144646      -0.68295456
H       -0.62264859      -2.45592969       0.64226336
C        1.78714474       0.01002794       0.00389507
H        2.44202412       0.67113390       0.66197326
H        2.45385902      -0.65136977      -0.64189061
C        0.91606151      -0.90478549       0.90901405
