154
Properties=species:S:1:pos:R:3 pbc="F F F"
C        1.82947414       1.82947414      -1.82947414
C        1.80283474       3.29744958      -1.36849601
H        2.02125371       3.27702422      -0.28981704
C        2.91443117       4.16966163      -2.05448884
H        2.72683852       5.21855245      -1.77698739
C        4.28867284       3.83310517      -1.46727723
C        5.12813330       2.84191055      -1.99907970
C        6.36276368       2.55818353      -1.40968107
C        6.78103069       3.26129234      -0.28357990
C        5.96308280       4.24884661       0.25711061
C        4.72660555       4.52986146      -0.32720380
C        2.84129560       4.12495897      -3.58995225
Br       3.98818670       5.48900432      -4.39694420
C        0.43985386       3.98904143      -1.48927465
C       -0.51532203       3.65094085      -2.46015769
C       -1.74714521       4.30967016      -2.51203939
C       -2.03966840       5.32343255      -1.60453140
C       -1.09975442       5.68308137      -0.64398032
C        0.12869582       5.02237289      -0.58689964
H        1.49196905       1.68117493      -2.85884259
H        2.82204551       1.38501985      -1.72682095
H        4.84237091       2.26854061      -2.87671839
H        7.00110147       1.78644266      -1.83335876
H        7.74403856       3.04116980       0.17040196
H        6.28779819       4.80279217       1.13396021
H        4.10589445       5.30682127       0.11503606
H        1.84144681       4.36669153      -3.95662800
H        3.14904410       3.16999912      -4.02112908
H       -0.33355194       2.86683421      -3.18903797
H       -2.48268739       4.02552163      -3.26109433
H       -3.00052357       5.83060399      -1.64405808
H       -1.32429018       6.47456661       0.06623518
H        0.84433418       5.31692455       0.17869569
C       -1.82947414      -1.82947414      -1.82947414
C       -1.05532811      -3.04563485      -2.36781736
H       -0.58430498      -3.51381860      -1.48997139
C       -1.99353590      -4.12065007      -3.02439567
H       -1.34701622      -4.87281756      -3.50254457
C       -2.76804083      -4.87903429      -1.94198012
C       -4.02604614      -4.47177107      -1.47130634
C       -4.67914505      -5.18712211      -0.46436113
C       -4.08977159      -6.32180753       0.08567619
C       -2.84353637      -6.74204137      -0.36924107
C       -2.18695818      -6.02526867      -1.37144396
C       -2.86327244      -3.54064405      -4.15229034
Br      -3.73771102      -4.95892247      -5.17750173
C        0.10348104      -2.70832480      -3.31332617
C        0.12100725      -1.57545565      -4.14132810
C        1.21326281      -1.31419728      -4.97362987
C        2.29843183      -2.18510447      -5.00162292
C        2.29309526      -3.32141249      -4.19899005
C        1.20575088      -3.58092312      -3.36279611
H       -2.23900145      -1.18276776      -2.61021737
H       -2.64523984      -2.12350996      -1.16513651
H       -4.52332032      -3.59255438      -1.87175522
H       -5.65308078      -4.85783743      -0.10998467
H       -4.60220039      -6.87876475       0.86615874
H       -2.38177864      -7.62975755       0.05490605
H       -1.21329847      -6.37491987      -1.70946132
H       -2.26495162      -3.00643391      -4.89338080
H       -3.65839439      -2.87832831      -3.80344960
H       -0.70153819      -0.86666409      -4.15411795
H        1.21811393      -0.42384152      -5.59820098
H        3.14879476      -1.97672586      -5.64620740
H        3.13849594      -4.00419689      -4.21834030
H        1.22875672      -4.47258249      -2.73873726
C       -1.82947414       1.82947414       1.82947414
C       -2.16116143       1.14194010       3.16567879
H       -1.19659024       0.81121939       3.58028534
C       -2.80744610       2.12213130       4.20900424
H       -3.13823958       1.51687464       5.06726413
C       -1.74612448       3.07483078       4.76809998
C       -1.45498976       4.32146422       4.19266958
C       -0.45947371       5.14209966       4.72905492
C        0.25802989       4.73410167       5.84983114
C       -0.01752153       3.50203447       6.43526281
C       -1.00810917       2.67826314       5.89729850
C       -4.07309802       2.81113193       3.67197689
Br      -5.04402820       3.72937705       5.10072997
C       -3.00493701      -0.13252677       3.04575969
C       -3.93211635      -0.35178307       2.01544322
C       -4.66365537      -1.54125824       1.95216721
C       -4.49040587      -2.52417830       2.92206798
C       -3.58668621      -2.31907217       3.95969324
C       -2.85093777      -1.13426712       4.02129770
H       -2.70865642       2.08957892       1.23375124
H       -1.23125786       2.73261356       1.97001489
H       -1.98983203       4.68026679       3.31753109
H       -0.24534445       6.10475881       4.27079963
H        1.02922760       5.37658994       6.26744405
H        0.53777834       3.18158397       7.31282451
H       -1.20410764       1.71964987       6.37392216
H       -4.79388796       2.08991532       3.28096306
H       -3.87750828       3.56054976       2.90211426
H       -4.10180233       0.38473752       1.23578039
H       -5.36740683      -1.70221218       1.13873393
H       -5.05706082      -3.45043632       2.86751401
H       -3.44886727      -3.08411533       4.71928930
H       -2.14457467      -1.00078673       4.83877509
C        1.82947414      -1.82947414       1.82947414
C        3.29138393      -1.34886906       1.82852733
H        3.25367257      -0.27356724       2.06085515
C        4.15795247      -2.03809266       2.94253651
H        5.20542438      -1.74430652       2.77264745
C        3.79549409      -1.47377994       4.31978122
C        2.80051189      -2.02977006       5.13884160
C        2.49268492      -1.46070917       6.37723420
C        3.17511217      -0.33112497       6.81966579
C        4.16605233       0.23341624       6.02218272
C        4.47112403      -0.33057240       4.78197438
C        4.13473425      -3.57289789       2.84857469
Br       5.49420060      -4.37708697       4.00284765
C        4.00243559      -1.44230099       0.47343337
C        3.68995674      -2.40470988      -0.49889012
C        4.36550220      -2.43144238      -1.72238024
C        5.37081884      -1.50682200      -1.98934529
C        5.70518135      -0.55425529      -1.03212937
C        5.02763209      -0.52230576       0.18803049
H        1.69940181      -2.85610753       1.47647723
H        1.37064175      -1.74595813       2.81728644
H        2.24273460      -2.91099534       4.83389996
H        1.71832476      -1.90301369       6.99956444
H        2.93626832       0.10701013       7.78554822
H        4.70390567       1.11307614       6.36580061
H        5.25022187       0.13012434       4.17758214
H        4.39450366      -3.92296521       1.84729747
H        3.18164571      -4.02069921       3.13782738
H        2.91332914      -3.14622691      -0.33723582
H        4.10110705      -3.17428511      -2.47146359
H        5.89109591      -1.52681953      -2.94377693
H        6.48999938       0.16926883      -1.23668930
H        5.30246996       0.23747749       0.91757056
C       -0.00445707       0.01189536      -1.78238275
H       -0.66409135       0.67374010      -2.43557963
H        0.65740317      -0.63156657      -2.45157240
C       -0.90989263      -0.90692880      -0.91072765
C        0.90977584       0.90977584      -0.90977584
C       -0.00465871       1.77757030       0.00794375
H       -0.66225468       2.44313916      -0.64384735
H        0.64322798       2.43503045       0.67728295
C       -1.78241447       0.00034974      -0.00472694
H       -2.45427497      -0.65498947       0.64260836
H       -2.43311707       0.67328779      -0.65473579
C       -0.91132561       0.90220522       0.91563759
C       -0.01476271      -0.02253852       1.78660255
H       -0.67934791      -0.69751639       2.42135241
H        0.63392994       0.61504881       2.47327442
C        0.01484550      -1.77751727      -0.01636693
H        0.67870853      -2.42144646      -0.68295456
H       -0.62264859      -2.45592969       0.64226336
C        1.78714474       0.01002794       0.00389507
H        2.44202412       0.67113390       0.66197326
H        2.45385902      -0.65136977      -0.64189061
C        0.91606151      -0.90478549       0.90901405
