162
Properties=species:S:1:pos:R:3 pbc="F F F"
C        1.82947414       1.82947414      -1.82947414
C        1.80283474       3.29744958      -1.36849601
H        2.02125371       3.27702422      -0.28981704
C        2.91443117       4.16966163      -2.05448884
H        2.72683852       5.21855245      -1.77698739
C        4.28867284       3.83310517      -1.46727723
C        5.12813330       2.84191055      -1.99907970
C        6.36276368       2.55818353      -1.40968107
C        6.78103069       3.26129234      -0.28357990
C        5.96308280       4.24884661       0.25711061
C        4.72660555       4.52986146      -0.32720380
C        2.84129560       4.12495897      -3.58995225
C        0.43985386       3.98904143      -1.48927465
C       -0.51532203       3.65094085      -2.46015769
C       -1.74714521       4.30967016      -2.51203939
C       -2.03966840       5.32343255      -1.60453140
C       -1.09975442       5.68308137      -0.64398032
C        0.12869582       5.02237289      -0.58689964
H        1.49196905       1.68117493      -2.85884259
H        2.82204551       1.38501985      -1.72682095
H        4.84237091       2.26854061      -2.87671839
H        7.00110147       1.78644266      -1.83335876
H        7.74403856       3.04116980       0.17040196
H        6.28779819       4.80279217       1.13396021
H        4.10589445       5.30682127       0.11503606
H        1.84144681       4.36669153      -3.95662800
H        3.14904410       3.16999912      -4.02112908
H       -0.33355194       2.86683421      -3.18903797
H       -2.48268739       4.02552163      -3.26109433
H       -3.00052357       5.83060399      -1.64405808
H       -1.32429018       6.47456661       0.06623518
H        0.84433418       5.31692455       0.17869569
C        3.68549152       5.12899634      -4.18395748
C        4.39250560       5.96987764      -4.68143686
Br       5.53568758       7.32951158      -5.48581894
C       -1.82947414      -1.82947414      -1.82947414
C       -0.99015790      -2.80296503      -2.67565739
H       -0.31227057      -3.30637079      -1.96945361
C       -1.86007027      -3.91555829      -3.36295308
H       -1.20247376      -4.46766825      -4.05223634
C       -2.31824460      -4.94531195      -2.32549870
C       -3.52256564      -4.83309311      -1.61346480
C       -3.88168581      -5.78907171      -0.65987077
C       -3.04749478      -6.87370446      -0.40470370
C       -1.85004456      -7.00287964      -1.10189461
C       -1.48692811      -6.04561079      -2.05113191
C       -2.98565282      -3.33514500      -4.23540901
C       -0.07261956      -2.13748585      -3.70806453
C       -0.36294885      -0.90990757      -4.32292009
C        0.52027217      -0.34646596      -5.24837055
C        1.69982494      -1.00466823      -5.58345226
C        1.99817854      -2.22980326      -4.99568255
C        1.12015542      -2.79126713      -4.06685663
H       -2.45683094      -1.15574928      -2.41940635
H       -2.46735489      -2.35289110      -1.11364032
H       -4.20407531      -4.00338427      -1.78017033
H       -4.81781910      -5.68710574      -0.11597805
H       -3.33153798      -7.61817411       0.33490568
H       -1.19783119      -7.85042276      -0.90837619
H       -0.54528441      -6.16985424      -2.58254101
H       -2.60784565      -2.60384502      -4.95307567
H       -3.79711303      -2.87721214      -3.66584713
H       -1.26997196      -0.35863203      -4.09371625
H        0.28789284       0.61297299      -5.70479440
H        2.38730248      -0.56165164      -6.29978935
H        2.91815872      -2.74712794      -5.25507203
H        1.37977801      -3.74712066      -3.61522038
C       -3.58993877      -4.35261918      -5.05588739
C       -4.09602826      -5.20475381      -5.74303803
Br      -4.91433215      -6.58258344      -6.85410251
C       -1.82947414       1.82947414       1.82947414
C       -3.15946225       1.13592339       2.17339468
H       -2.88803592       0.14122075       2.55883829
C       -3.95483156       1.87612843       3.30762165
H       -4.94340058       1.39699240       3.38198537
C       -3.28494700       1.63935037       4.66475788
C       -2.29498710       2.48477842       5.18935803
C       -1.69879957       2.20924496       6.42258376
C       -2.08355934       1.08888808       7.15345551
C       -3.06466595       0.23977775       6.65037511
C       -3.65752406       0.51048115       5.41566560
C       -4.23058097       3.35178095       2.97384491
C       -4.07715449       0.86571620       0.97529925
C       -4.10277571       1.66845688      -0.17545609
C       -4.95324962       1.36336123      -1.24204651
C       -5.79937979       0.26064889      -1.17173312
C       -5.79915996      -0.53873092      -0.03312176
C       -4.94629426      -0.23900246       1.03067654
H       -1.94781867       2.78069429       1.30347361
H       -1.21540107       2.00225508       2.71623016
H       -1.96393708       3.37018097       4.65351186
H       -0.93246893       2.87373113       6.81470282
H       -1.62082643       0.87932723       8.11465274
H       -3.37066551      -0.63386332       7.21982796
H       -4.42226752      -0.16927328       5.04468543
H       -4.70283781       3.46608715       1.99584138
H       -3.34353904       3.98778595       3.00884731
H       -3.46107786       2.53850789      -0.27726552
H       -4.95028667       1.98682689      -2.13318498
H       -6.45615683       0.02285776      -2.00487608
H       -6.45879356      -1.40052347       0.02577116
H       -4.95929424      -0.88414140       1.90741019
C       -5.17915042       3.92789296       3.89140196
C       -5.97357735       4.41038678       4.65985598
Br      -7.25809849       5.19053846       5.90238115
C        1.82947414      -1.82947414       1.82947414
C        2.38625481      -1.04918191       3.03334361
H        1.51719762      -0.56569410       3.50520324
C        3.04413246      -1.98350148       4.11094771
H        3.53522086      -1.33454824       4.85260926
C        1.96172650      -2.74084806       4.88648069
C        1.47568057      -3.99811902       4.49532396
C        0.46945846      -4.63517083       5.22599900
C       -0.06451336      -4.03024351       6.36017278
C        0.40578960      -2.78447499       6.76455421
C        1.40728868      -2.14391313       6.03246900
C        4.15849275      -2.86903152       3.52868256
C        3.33923918       0.09760017       2.67653092
C        4.15677291       0.09694631       1.53594991
C        4.99665423       1.17893795       1.25684806
C        5.04278285       2.27179488       2.11730759
C        4.25076061       2.28443264       3.26097931
C        3.40701651       1.20737190       3.53832373
H        2.60034091      -2.25221491       1.17943075
H        1.16040119      -2.63626252       2.13722260
H        1.86330835      -4.50720170       3.61711986
H        0.10304982      -5.60876052       4.90909254
H       -0.84446960      -4.53021069       6.92906531
H       -0.00578313      -2.31060634       7.65180693
H        1.75752690      -1.17025890       6.36989386
H        4.90006546      -2.28260251       2.98209836
H        3.79616660      -3.66694973       2.87705597
H        4.15535981      -0.73219273       0.83476769
H        5.61291792       1.16974558       0.36075623
H        5.69322219       3.11415260       1.89506892
H        4.28427970       3.13588523       3.93564679
H        2.79153443       1.24442608       4.43545468
C        4.91684494      -3.51002025       4.57158016
C        5.55196490      -4.04684830       5.44500691
Br       6.57890015      -4.91485386       6.85726408
C       -0.00445707       0.01189536      -1.78238275
H       -0.66409135       0.67374010      -2.43557963
H        0.65740317      -0.63156657      -2.45157240
C       -0.90989263      -0.90692880      -0.91072765
C        0.90977584       0.90977584      -0.90977584
C       -0.00465871       1.77757030       0.00794375
H       -0.66225468       2.44313916      -0.64384735
H        0.64322798       2.43503045       0.67728295
C       -1.78241447       0.00034974      -0.00472694
H       -2.45427497      -0.65498947       0.64260836
H       -2.43311707       0.67328779      -0.65473579
C       -0.91132561       0.90220522       0.91563759
C       -0.01476271      -0.02253852       1.78660255
H       -0.67934791      -0.69751639       2.42135241
H        0.63392994       0.61504881       2.47327442
C        0.01484550      -1.77751727      -0.01636693
H        0.67870853      -2.42144646      -0.68295456
H       -0.62264859      -2.45592969       0.64226336
C        1.78714474       0.01002794       0.00389507
H        2.44202412       0.67113390       0.66197326
H        2.45385902      -0.65136977      -0.64189061
C        0.91606151      -0.90478549       0.90901405
