149
Properties=species:S:1:pos:R:3 pbc="F F F"
C        0.00000000       0.00000000       0.00000000
C        0.91870365       0.91870365      -0.91870365
C        0.08577407       1.93176298      -1.71383002
H       -0.58973104       2.44489281      -1.01515261
C       -0.75534077       1.27593784      -2.80188110
C       -0.16717711       0.58042720      -3.87199650
C       -0.95934288      -0.03654117      -4.84253834
C       -2.34787677       0.03426323      -4.76010797
C       -2.94651979       0.72589073      -3.71004377
C       -2.15699223       1.34389871      -2.73825384
C        0.97821464       2.96983322      -2.28068034
C        1.72619396       3.79705509      -2.72297090
C        2.71851225       4.81843926      -3.28899093
C        3.52641998       5.56035903      -3.75084442
C        4.50664594       6.46051899      -4.31120872
H        3.96892948       7.22130637      -4.89381931
C        5.28470032       7.17827765      -3.21323613
C        5.25624800       8.57997386      -3.13443142
C        5.97061540       9.25168891      -2.14029771
C        6.72115285       8.53361911      -1.21208382
C        6.75868309       7.14283083      -1.27527687
C        6.04669576       6.46824126      -2.26862802
C        5.47978978       5.73980409      -5.25069191
Br       4.59619712       5.19592644      -6.90986157
H        1.50320133       0.24300698      -1.55087419
H        1.60218017       1.41790110      -0.22340508
H        0.91488173       0.51366290      -3.96147762
H       -0.49167647      -0.57372624      -5.66363251
H       -2.96338067      -0.44859484      -5.51449304
H       -4.03009243       0.78180131      -3.64474669
H       -2.64824685       1.87262120      -1.92396509
H        4.67448107       9.16289626      -3.84563994
H        5.93863694      10.33709445      -2.08843873
H        7.27348992       9.05797064      -0.43664927
H        7.33930868       6.58186402      -0.54736222
H        6.08394183       5.38090486      -2.29206309
H        5.90114735       4.82676690      -4.81727096
H        6.29945406       6.39290562      -5.56812728
C       -0.91870365      -0.91870365      -0.91870365
C       -2.38806365      -0.86032959      -0.48297383
H       -2.67692888       0.19585737      -0.38924286
C       -2.63180757      -1.54620388       0.85553329
C       -2.39942417      -2.92051093       1.03468852
C       -2.60334869      -3.52178407       2.27847848
C       -3.04409108      -2.76120786       3.35880452
C       -3.28617099      -1.39947246       3.19622873
C       -3.08329898      -0.79558301       1.95372167
C       -3.24260209      -1.44123091      -1.54489519
C       -3.90781461      -1.91420463      -2.42420072
C       -4.71786691      -2.54779397      -3.56028158
C       -5.30429225      -3.09175498      -4.44157620
C       -6.01579421      -3.75174014      -5.51083930
H       -7.08552301      -3.73844166      -5.26009049
C       -5.83727240      -3.00838765      -6.83055403
C       -6.95827119      -2.50346060      -7.50892148
C       -6.81154461      -1.82855003      -8.72250738
C       -5.54501722      -1.64809859      -9.27373997
C       -4.42266054      -2.14128273      -8.61284752
C       -4.56592529      -2.81757644      -7.40006331
C       -5.58242465      -5.21264331      -5.67521783
Br      -6.20711907      -6.31266363      -4.18220242
H       -0.49194487      -1.92576527      -0.87937236
H       -0.78427346      -0.52661791      -1.93259498
H       -2.05865728      -3.53745932       0.20609434
H       -2.41716908      -4.58527079       2.40421008
H       -3.19981924      -3.22968325       4.32698495
H       -3.63018363      -0.80494367       4.03867172
H       -3.27300057       0.27114854       1.85351259
H       -7.95759919      -2.62852860      -7.09688946
H       -7.68704876      -1.44027082      -9.23685054
H       -5.43238677      -1.11917954     -10.21654352
H       -3.43362222      -1.99527090      -9.03964179
H       -3.67349021      -3.18566114      -6.89775842
H       -4.49527627      -5.33845282      -5.71145611
H       -6.02254669      -5.67078186      -6.56715842
C       -0.91870365       0.91870365       0.91870365
C       -0.16461385       2.16305854       1.40369468
H        0.30424044       2.64187614       0.53267868
C        0.92548031       1.83242711       2.41553138
C        0.62696722       1.25211549       3.66009832
C        1.64562087       0.93213091       4.56014424
C        2.97460001       1.18904311       4.23205133
C        3.28690616       1.77052448       3.00579639
C        2.27046399       2.09169250       2.10393181
C       -1.12932886       3.14172820       1.95767113
C       -1.93533376       3.91464809       2.39623810
C       -2.99464349       4.86238488       2.96891408
C       -3.84161219       5.54680754       3.44920369
C       -4.86922948       6.37720736       4.03193681
H       -4.39058993       7.29643773       4.39702750
C       -5.90990857       6.77566864       2.99063687
C       -6.13336490       8.13223775       2.70505062
C       -7.08900164       8.51285510       1.76074528
C       -7.83261437       7.54518419       1.08905722
C       -7.62214092       6.19525389       1.35939598
C       -6.66844574       5.81135531       2.30376398
C       -5.55758789       5.69398500       5.21871290
Br      -4.36215567       5.57629497       6.76353448
H       -1.28074796       0.28333641       1.73299812
H       -1.77125793       1.18680907       0.28541934
H       -0.40302722       1.04493401       3.94206102
H        1.40122244       0.48104562       5.51840661
H        3.76671914       0.93707571       4.93216097
H        4.32375039       1.97148554       2.74872043
H        2.54028571       2.53912691       1.14949825
H       -5.56267201       8.90654604       3.21379921
H       -7.25100981       9.56633061       1.54682971
H       -8.57333811       7.84317564       0.35159608
H       -8.19790697       5.43964958       0.83097837
H       -6.51537577       4.75037084       2.49116316
H       -5.87509681       4.66883514       5.00125326
H       -6.42183420       6.26544850       5.57320426
C        0.91870365      -0.91870365       0.91870365
C        2.30952836      -0.30376777       1.11807094
H        2.18122351       0.74188432       1.43097519
C        3.14953159      -0.32583725      -0.15289067
C        3.52400883      -1.53144926      -0.77021150
C        4.27071458      -1.52620674      -1.95026704
C        4.65588950      -0.31908384      -2.52847891
C        4.29928359       0.88445388      -1.92541500
C        3.55283971       0.88229837      -0.74538102
C        3.00252819      -0.99708163       2.22911837
C        3.53586807      -1.57547310       3.13487878
C        4.19005746      -2.35589758       4.27998741
C        4.68080157      -3.01886161       5.13796024
C        5.27621649      -3.82323108       6.17892608
H        6.28218999      -3.42700198       6.37486319
C        4.47658169      -3.72565675       7.47397564
C        5.08795881      -3.24114205       8.64155241
C        4.37136277      -3.15436918       9.83687007
C        3.03609467      -3.54874551       9.88201561
C        2.41428219      -4.03002175       8.73248685
C        3.12814345      -4.11925534       7.53616625
C        5.41451826      -5.29207999       5.76368754
Br       6.79224276      -5.51736912       4.39237326
H        0.94213527      -1.90664104       0.44830619
H        0.37597945      -1.00092774       1.86657916
H        3.23917157      -2.48766669      -0.33681602
H        4.55142434      -2.46584841      -2.41904296
H        5.23464843      -0.31619778      -3.44832867
H        4.59937466       1.82711946      -2.37579963
H        3.28084326       1.83561672      -0.29688710
H        6.12867398      -2.92354951       8.63079377
H        4.85535450      -2.77533822      10.73347740
H        2.47880960      -3.47691221      10.81238802
H        1.37057912      -4.33207904       8.76587676
H        2.61817183      -4.48967614       6.64906181
H        4.49433827      -5.70931573       5.34153121
H        5.74015220      -5.92277548       6.59755929
