146
Properties=species:S:1:pos:R:3 pbc="F F F"
N        4.40217275       6.04371915      -6.07851952
C        3.54592438       5.07522593      -5.37283540
H        2.89221266       5.68919417      -4.74027457
C        4.36717752       4.10440085      -4.42428195
H        4.91247981       3.39325168      -5.05740877
C        3.46515624       3.30947645      -3.48997481
C        3.41957042       1.91069071      -3.59085147
C        2.59214531       1.16023108      -2.75252438
C        1.79654152       1.79654152      -1.79654152
C        1.83381795       3.18892370      -1.67950994
C        2.66667414       3.93809155      -2.52009407
Cl       0.88100711       4.05493175      -0.52721816
N        5.41700519       4.80180706      -3.66266202
C        2.67105590       4.31604685      -6.36134888
C        1.27999590       4.49837055      -6.34086954
C        0.45481935       3.79596255      -7.22187995
C        1.00682390       2.90033231      -8.14073386
C        2.39187534       2.71637373      -8.18258570
C        3.21706558       3.42669939      -7.30152240
Cl       3.15709186       1.62748312      -9.28446984
Br      -0.18875433       1.97696088      -9.29071960
H        3.91992248       6.40363102      -6.89924230
H        5.24923852       5.57601555      -6.39659779
H        4.02845000       1.39022114      -4.32902787
H        2.57593768       0.07725041      -2.85530150
H        2.69125170       5.02111318      -2.41550000
H        5.68574008       4.24952033      -2.85173449
H        5.05519845       5.69238386      -3.32586991
H        0.82397690       5.18798324      -5.63153880
H       -0.62107428       3.95361809      -7.17944574
H        4.29424613       3.27952164      -7.34877010
N       -5.99188412      -6.12775209      -4.40477521
C       -5.01897660      -5.41845509      -3.55655401
H       -5.63113185      -4.82509753      -2.86545202
C       -4.10293131      -4.41609838      -4.37683063
H       -3.39031420      -5.01026806      -4.96255800
C       -3.30887631      -3.48513490      -3.47059630
C       -1.90695276      -3.54400645      -3.47015340
C       -1.15674877      -2.70807086      -2.64008113
C       -1.79654152      -1.79654152      -1.79654152
C       -3.19229520      -1.72158131      -1.78837508
C       -3.94130891      -2.55956888      -2.62398197
Cl      -4.06259946      -0.62575050      -0.77480707
N       -4.85502894      -3.64525790      -5.38118744
C       -4.20376751      -6.40881620      -2.73586793
C       -4.34349596      -6.43574461      -1.33999542
C       -3.58976900      -7.31896778      -0.56392507
C       -2.68447462      -8.19268987      -1.17072559
C       -2.54228548      -8.18724383      -2.56130547
C       -3.30392476      -7.30421238      -3.33715023
Cl      -1.44501431      -9.23144765      -3.39258287
Br      -1.69045680      -9.34891783      -0.03955151
H       -6.31190936      -6.97332094      -3.93756550
H       -5.54127810      -6.40564211      -5.27493165
H       -1.38365247      -4.24711980      -4.11692673
H       -0.07118871      -2.77773067      -2.65957021
H       -5.02722339      -2.48784388      -2.61279761
H       -4.33590735      -2.80993084      -5.64115671
H       -5.74369101      -3.34719218      -4.98256903
H       -5.03964608      -5.76209598      -0.84175689
H       -3.71526259      -7.31373994       0.51701298
H       -3.18879458      -7.31453481      -4.41920848
N       -4.48342811       5.65972961       6.38125369
C       -3.68261436       4.66833565       5.64303570
H       -2.79878221       5.22181484       5.30108434
C       -4.42902084       4.10554165       4.36129783
H       -5.22742540       3.43418013       4.70153474
C       -3.49972201       3.31182291       3.45306257
C       -3.73865847       1.94627259       3.23618155
C       -2.89445922       1.19439934       2.41604221
C       -1.79654152       1.79654152       1.79654152
C       -1.54713800       3.15705754       1.99805605
C       -2.39728452       3.90852736       2.81904787
Cl      -0.21130121       3.97888044       1.27297538
N       -5.12756127       5.15445517       3.59945783
C       -3.21485960       3.55858622       6.57500582
C       -1.84736697       3.41664072       6.85522830
C       -1.39183867       2.39248510       7.68833809
C       -2.29655723       1.49345202       8.25788082
C       -3.66352793       1.62849195       7.99881490
C       -4.11758947       2.66022487       7.16747302
Cl      -4.84986317       0.55993142       8.65925023
Br      -1.58997657       0.12314567       9.36580391
H       -4.14473987       5.74053416       7.33752178
H       -5.45254592       5.34875206       6.42055388
H       -4.58661805       1.45223134       3.70884962
H       -3.10336044       0.13696613       2.26816302
H       -2.19595427       4.96826150       2.96364911
H       -5.30017454       4.83893819       2.64788218
H       -4.53935816       5.98450931       3.54958477
H       -1.12072758       4.10208667       6.42068470
H       -0.32497181       2.30352692       7.88349082
H       -5.18485065       2.75859700       6.97909022
N        6.10973832      -4.40345366       6.01121944
C        5.40182165      -3.55226100       5.03990306
H        4.79383951      -2.87484095       5.65300094
C        4.41916435      -4.37328457       4.10341140
H        5.02789001      -4.94419514       3.39105511
C        3.48694626      -3.46859952       3.30906173
C        3.56152369      -3.45159996       1.90798895
C        2.72469336      -2.62249908       1.15770832
C        1.79654152      -1.79654152       1.79654152
C        1.70584902      -1.80504326       3.19135931
C        2.54480718      -2.63964156       3.94041102
Cl       0.58890667      -0.81375913       4.06049123
N        3.65137792      -5.39468451       4.83541184
C        6.39189106      -2.71133153       4.24522904
C        6.40142139      -1.31691899       4.40089562
C        7.28418306      -0.52249797       3.66598082
C        8.17482484      -1.10915986       2.76390537
C        8.18674174      -2.49801168       2.60608135
C        7.30408049      -3.29229471       3.34891216
Cl       9.25254140      -3.30503361       1.51146981
Br       9.32922416       0.04610537       1.79580735
H        6.94631376      -3.93045164       6.34603040
H        6.40251206      -5.26527425       5.55406555
H        4.27774877      -4.08447394       1.38547629
H        2.80673662      -2.62889530       0.07285766
H        2.46078919      -2.64157617       5.02549952
H        2.82492531      -5.65810002       4.30396957
H        3.33886641      -5.00953539       5.72505042
H        5.71440355      -0.83419054       5.09490486
H        7.26529191       0.55682103       3.80351867
H        7.32796209      -4.37279417       3.22178162
C       -0.00445707       0.01189536      -1.78238275
H       -0.66409135       0.67374010      -2.43557963
H        0.65740317      -0.63156657      -2.45157240
C       -0.90989263      -0.90692880      -0.91072765
C        0.90977584       0.90977584      -0.90977584
C       -0.00465871       1.77757030       0.00794375
H       -0.66225468       2.44313916      -0.64384735
H        0.64322798       2.43503045       0.67728295
C       -1.78241447       0.00034974      -0.00472694
H       -2.45427497      -0.65498947       0.64260836
H       -2.43311707       0.67328779      -0.65473579
C       -0.91132561       0.90220522       0.91563759
C       -0.01476271      -0.02253852       1.78660255
H       -0.67934791      -0.69751639       2.42135241
H        0.63392994       0.61504881       2.47327442
C        0.01484550      -1.77751727      -0.01636693
H        0.67870853      -2.42144646      -0.68295456
H       -0.62264859      -2.45592969       0.64226336
C        1.78714474       0.01002794       0.00389507
H        2.44202412       0.67113390       0.66197326
H        2.45385902      -0.65136977      -0.64189061
C        0.91606151      -0.90478549       0.90901405
