146
Properties=species:S:1:pos:R:3 pbc="F F F"
C        1.79169910       1.79169910      -1.79169910
C        1.63502090       1.76512637      -3.17215474
C        2.43806511       2.58045472      -3.97305423
C        3.39893149       3.44892155      -3.41167406
C        3.53880336       3.44785969      -2.01114476
C        2.74254937       2.62249620      -1.20765527
Cl       4.66834325       4.46328021      -1.18737276
C        4.23246203       4.33654226      -4.32833932
H        4.60451952       5.19881879      -3.76976162
C        5.45450359       3.58259523      -4.99799441
H        5.04566777       2.67211425      -5.45822835
C        6.56301115       3.16827433      -4.03894357
C        6.76004038       1.78902376      -3.82063066
C        7.75603922       1.32612221      -2.95675486
C        8.56778207       2.23659910      -2.29053348
C        8.40325748       3.60326132      -2.49009228
C        7.41424291       4.06661854      -3.36585974
Cl       7.32527460       5.78032252      -3.59155954
Br       9.91087765       1.61388755      -1.11600404
N        6.00702042       4.35215825      -6.14370931
N        3.37526718       4.92293049      -5.39196161
H        0.88731729       1.12715937      -3.63672224
H        2.29191586       2.55832377      -5.05342470
H        2.86075116       2.63928180      -0.12670036
H        6.13477191       1.05524441      -4.32893719
H        7.88709772       0.25586935      -2.81275282
H        9.04463559       4.31109716      -1.97074749
H        6.75951562       3.80747382      -6.56427519
H        6.44860683       5.19737283      -5.77637269
H        2.95143063       5.77756880      -5.03862975
H        4.01089018       5.19704365      -6.14962351
C       -1.79169910      -1.79169910      -1.79169910
C       -1.60552798      -3.16872924      -1.79804480
C       -2.42093015      -3.97106406      -2.59957985
C       -3.44701441      -3.41725874      -3.39525396
C       -3.60601619      -2.01895131      -3.37284031
C       -2.78174426      -1.21220763      -2.57874895
Cl      -4.82363470      -1.20540936      -4.28995217
C       -4.32544145      -4.33913858      -4.23276358
H       -5.27754965      -3.84793187      -4.44761841
C       -3.65188672      -4.78862633      -5.59458017
H       -2.65804055      -5.18091323      -5.33705659
C       -3.46833311      -3.67950681      -6.62238914
C       -2.15061095      -3.28526046      -6.93382340
C       -1.89635968      -2.27617218      -7.86638443
C       -2.95761848      -1.63893127      -8.49836490
C       -4.26856110      -2.00986077      -8.21818920
C       -4.52284144      -3.03003289      -7.29384687
Cl      -6.18266452      -3.45884910      -7.05564303
Br      -2.61723909      -0.26887170      -9.75465844
N       -4.35786648      -5.95216546      -6.19285604
N       -4.69709635      -5.54548775      -3.44757517
H       -0.84160749      -3.63141319      -1.17817821
H       -2.27121015      -5.05101980      -2.58143438
H       -2.92303559      -0.13393449      -2.56976324
H       -1.30157577      -3.76757722      -6.44980053
H       -0.86873393      -1.99759274      -8.08939322
H       -5.09494626      -1.51200395      -8.71953003
H       -3.86280114      -6.22783125      -7.04063225
H       -5.28143261      -5.64080921      -6.50011052
H       -5.52921804      -5.33803135      -2.90037979
H       -4.96297887      -6.26020551      -4.13437296
C       -1.79169910       1.79169910       1.79169910
C       -3.11350556       1.43276981       2.02602665
C       -3.91266529       2.23823924       2.84066952
C       -3.40404054       3.40566345       3.44982311
C       -2.06382698       3.74640233       3.18757850
C       -1.26477778       2.94620131       2.36172175
Cl      -1.30709989       5.14175676       3.87013958
C       -4.31065797       4.23634457       4.35034108
H       -3.70444334       4.82866943       5.03998716
C       -5.28330410       5.19940456       3.55238457
H       -5.79443219       4.57733348       2.80424471
C       -4.60009582       6.34824407       2.82188916
C       -4.62283148       6.33498138       1.41188194
C       -4.02010115       7.35195393       0.66686121
C       -3.37756336       8.39664233       1.32070897
C       -3.34398470       8.44214786       2.71047851
C       -3.95943417       7.43032011       3.45696692
Cl      -3.91359916       7.60527510       5.17828240
Br      -2.55521360       9.76968278       0.31587286
N       -6.38200607       5.70255196       4.41832996
N       -5.11380158       3.34663733       5.22972036
H       -3.53077737       0.52678490       1.59363663
H       -4.94328570       1.93418180       3.02619682
H       -0.22956453       3.22219842       2.17497037
H       -5.11776366       5.52541145       0.87577840
H       -4.05873699       7.31668389      -0.41970099
H       -2.84485945       9.26456495       3.21705584
H       -7.00068529       6.28054760       3.85003174
H       -5.97654734       6.33173399       5.11407101
H       -4.57183087       3.13228615       6.06351216
H       -5.92114321       3.90227835       5.53413579
C        1.79169910      -1.79169910       1.79169910
C        2.81623840      -2.53618243       1.21988118
C        3.62529157      -3.33384667       2.03243582
C        3.43876763      -3.39022612       3.43053334
C        2.38842978      -2.63051058       3.97886745
C        1.56911121      -1.83943914       3.16415047
Cl       2.04839545      -2.59796332       5.67263746
C        4.36508620      -4.25693392       4.27532349
H        4.37149652      -3.89522215       5.30638126
C        3.97760566      -5.79316226       4.26432531
H        3.88328912      -6.08405774       3.20866351
C        2.66938135      -6.13528971       4.96555800
C        1.60059815      -6.59849536       4.17060129
C        0.36793091      -6.93454245       4.73644294
C        0.18141453      -6.80578790       6.10771222
C        1.21827885      -6.35851402       6.91981821
C        2.45743611      -6.03462470       6.35466038
Cl       3.70121333      -5.54276888       7.45317445
Br      -1.48677904      -7.25254879       6.87499948
N        5.08844841      -6.63827222       4.77616735
N        5.77081178      -4.10219064       3.81715686
H        3.00448847      -2.49682866       0.14988177
H        4.43407718      -3.90007633       1.56951082
H        0.76586616      -1.25459497       3.60627219
H        1.72084125      -6.70541543       3.09269684
H       -0.43599083      -7.29393757       4.09777315
H        1.06886364      -6.26493557       7.99268103
H        4.80633159      -7.61587743       4.70905562
H        5.19840120      -6.44948849       5.77446266
H        6.18279666      -3.29884913       4.28598339
H        6.27181255      -4.93233371       4.15341109
C       -0.00445707       0.01189536      -1.78238275
H       -0.66409135       0.67374010      -2.43557963
H        0.65740317      -0.63156657      -2.45157240
C       -0.90989263      -0.90692880      -0.91072765
C        0.90977584       0.90977584      -0.90977584
C       -0.00465871       1.77757030       0.00794375
H       -0.66225468       2.44313916      -0.64384735
H        0.64322798       2.43503045       0.67728295
C       -1.78241447       0.00034974      -0.00472694
H       -2.45427497      -0.65498947       0.64260836
H       -2.43311707       0.67328779      -0.65473579
C       -0.91132561       0.90220522       0.91563759
C       -0.01476271      -0.02253852       1.78660255
H       -0.67934791      -0.69751639       2.42135241
H        0.63392994       0.61504881       2.47327442
C        0.01484550      -1.77751727      -0.01636693
H        0.67870853      -2.42144646      -0.68295456
H       -0.62264859      -2.45592969       0.64226336
C        1.78714474       0.01002794       0.00389507
H        2.44202412       0.67113390       0.66197326
H        2.45385902      -0.65136977      -0.64189061
C        0.91606151      -0.90478549       0.90901405
