133
Properties=species:S:1:pos:R:3 pbc="F F F"
C        0.00000000       0.00000000       0.00000000
C        0.88179507       0.88179507      -0.88179507
C        0.72511688       0.85522235      -2.26225072
C        1.52816108       1.67055069      -3.06315020
C        2.48902746       2.53901752      -2.50177004
C        2.62889934       2.53795567      -1.10124073
C        1.83264534       1.71259217      -0.29775124
Cl       3.75843923       3.55337619      -0.27746874
C        3.32255801       3.42663824      -3.41843529
H        3.69461550       4.28891477      -2.85985759
C        4.54459957       2.67269121      -4.08809038
H        4.13576375       1.76221023      -4.54832432
C        5.65310713       2.25837031      -3.12903955
C        5.85013636       0.87911974      -2.91072664
C        6.84613519       0.41621819      -2.04685084
C        7.65787805       1.32669507      -1.38062946
C        7.49335346       2.69335729      -1.58018826
C        6.50433889       3.15671452      -2.45595572
Cl       6.41537058       4.87041849      -2.68165552
N        5.09711640       3.44225423      -5.23380529
N        2.46536315       4.01302647      -4.48205758
H       -0.02258674       0.21725534      -2.72681821
H        1.38201184       1.64841974      -4.14352067
H        1.95084714       1.72937778       0.78320367
H        5.22486789       0.14534038      -3.41903317
H        6.97719370      -0.65403467      -1.90284879
H        8.13473156       3.40119314      -1.06084347
H        5.84961160       2.89756980      -5.65437117
H        5.53870280       4.28746880      -4.86646867
H        2.04152661       4.86766478      -4.12872572
H        3.10098616       4.28713963      -5.23971949
C        8.68131864       0.85218805      -0.48563648
C        9.53845014       0.45478842       0.26392014
Br      10.92435929      -0.18777317       1.47588980
C       -0.88179507      -0.88179507      -0.88179507
C       -0.50288888      -2.19199957      -1.14770148
C       -1.31782911      -2.99665965      -1.94737322
C       -2.53264498      -2.51555849      -2.48161155
C       -2.88541016      -1.18232943      -2.20035615
C       -2.06371623      -0.37079782      -1.40847471
Cl      -4.34494410      -0.46287580      -2.78146426
C       -3.39788938      -3.44224919      -3.32749297
H       -4.43332662      -3.09338038      -3.31668085
C       -2.90670622      -3.57031636      -4.82835857
H       -1.83761483      -3.82182904      -4.78685443
C       -3.06141794      -2.30974974      -5.66934930
C       -1.88612926      -1.65761704      -6.09623643
C       -1.94138525      -0.49635178      -6.87146718
C       -3.17483696       0.03655817      -7.22692379
C       -4.35216264      -0.58718893      -6.82754744
C       -4.29672753      -1.75808134      -6.06220026
Cl      -5.81296736      -2.49122264      -5.66325458
N       -3.52852567      -4.73793935      -5.50671089
N       -3.45359615      -4.79445971      -2.71239134
H        0.41345135      -2.60325733      -0.73168083
H       -1.01313617      -4.02691098      -2.13390510
H       -2.35536020       0.65532821      -1.19698926
H       -0.90694694      -2.05404364      -5.82825086
H       -1.01731557      -0.01880057      -7.18989168
H       -5.31442973      -0.16928419      -7.11305424
H       -3.14948544      -4.80080206      -6.45126507
H       -4.52584063      -4.54628071      -5.62051893
H       -4.20227106      -4.81178445      -2.02386161
H       -3.72597747      -5.43729295      -3.46457485
C       -3.23431587       1.23628059      -8.02110789
C       -3.28412946       2.24104811      -8.68623708
Br      -3.36467382       3.86567221      -9.76169471
C       -0.88179507       0.88179507       0.88179507
C       -2.26403006       0.74915323       0.82940665
C       -3.06513968       1.55195485       1.64476745
C       -2.50261905       2.48840645       2.53878952
C       -1.10012665       2.60436784       2.56360125
C       -0.29614272       1.80847861       1.73836743
Cl      -0.27496707       3.70250469       3.61181240
C       -3.42018312       3.32244787       3.42500055
H       -2.87023317       3.67041068       4.30274401
C       -4.05629260       4.56820587       2.68088269
H       -4.50772151       4.18260625       1.75597054
C       -3.07185907       5.66698646       2.30167146
C       -2.82677902       5.88336632       0.92983739
C       -1.93855149       6.87210847       0.49854426
C       -1.27443707       7.65698645       1.43377906
C       -1.50000854       7.47299315       2.79389731
C       -2.40001497       6.49142847       3.22556569
Cl      -2.65637220       6.37759565       4.93347673
N       -5.20553985       5.12720067       3.44043539
N       -4.50787843       2.47380606       3.97876271
H       -2.73012242       0.02028652       0.17107789
H       -4.14727454       1.42464602       1.60203169
H        0.78619889       1.90792766       1.77529248
H       -3.33291037       5.27925258       0.17707849
H       -1.77413785       7.01862193      -0.56675197
H       -0.98212941       8.09345874       3.52118002
H       -5.60407522       5.89578861       2.90168874
H       -4.84531921       5.54822056       4.29910050
H       -4.17633284       2.02973146       4.83185281
H       -5.25933929       3.11757333       4.25093266
C       -0.35444311       8.67282637       0.99187369
C        0.41605183       9.52359231       0.62177795
Br       1.66187699      10.89920888       0.02336443
C        0.88179507      -0.88179507       0.88179507
C        1.99012958      -1.51722832       0.33523204
C        2.79816955      -2.31518558       1.14850685
C        2.52604151      -2.47997082       2.52380270
C        1.39248901      -1.82941792       3.04618882
C        0.57482495      -1.03853776       2.22962604
Cl       0.94228980      -1.93602472       4.71096963
C        3.45350892      -3.34131247       3.37281016
H        3.36827615      -3.05205339       4.42305832
C        3.17462806      -4.89492770       3.23582540
H        3.16904530      -5.11766793       2.15958507
C        1.85060216      -5.36850430       3.82141053
C        0.86998431      -5.84376026       2.92623815
C       -0.37049539      -6.29704641       3.38265320
C       -0.65367494      -6.27567367       4.74320386
C        0.29515995      -5.81952541       5.65221364
C        1.54289648      -5.37797041       5.19614224
Cl       2.67612985      -4.88386113       6.40745361
N        4.30581274      -5.69983930       3.76752387
N        4.87184137      -3.06477524       3.02383059
H        2.24395280      -1.39195200      -0.71441798
H        3.67236491      -2.79462961       0.70695773
H       -0.29379676      -0.53876723       2.65205079
H        1.06672366      -5.86794974       1.85456804
H       -1.10471109      -6.66264293       2.66807597
H        0.07062697      -5.81015428       6.71598692
H        4.09684869      -6.68665141       3.61805246
H        4.33772407      -5.57377860       4.78113760
H        5.19617612      -2.27081195       3.57092905
H        5.40623032      -3.88205840       3.33955656
C       -1.93339425      -6.73711426       5.21542316
C       -3.00515917      -7.12357076       5.61090683
Br      -4.73811239      -7.74843824       6.25037048
