170
Properties=species:S:1:pos:R:3 pbc="F F F"
C        1.79148454       1.79148454      -1.79148454
C        2.04357850       1.42011986      -3.10674246
C        2.84628922       2.23091803      -3.91421714
C        3.40357422       3.43245998      -3.42674913
C        3.14871403       3.76838939      -2.08129265
C        2.34229975       2.95833627      -1.27264602
Cl       3.81853152       5.18281698      -1.34100071
C        4.28421353       4.30490956      -4.31086959
H        4.16862273       5.34834480      -3.99940631
C        5.67528945       3.92569213      -4.23196992
C        6.82183405       3.61313354      -4.16693634
C        8.28578667       3.18815529      -4.03649074
C        9.42619661       2.85189879      -3.88044435
C       10.82154884       2.43598799      -3.64641449
H       10.97031643       1.53358734      -4.24868971
C       11.11776896       2.14135229      -2.18090159
C       10.54600525       2.93647027      -1.16287713
C       10.80976117       2.69080201       0.18683478
C       11.66625667       1.65598733       0.54312037
C       12.26693000       0.87116696      -0.43608886
C       11.99920119       1.11537420      -1.78854483
Cl      12.82151876       0.11797071      -2.93763601
N       11.71529849       3.47498962      -4.15146644
N        3.86195399       4.29291603      -5.71841667
H        1.62159699       0.50609809      -3.51747690
H        3.02528276       1.91369560      -4.93915829
H        2.14960006       3.24040051      -0.24070174
H        9.87758359       3.75970022      -1.41292747
H       10.34173359       3.31288569       0.94625430
H       12.94707252       0.07190501      -0.15193353
H       12.67733033       3.16771072      -4.02164566
H       11.60146674       4.31391930      -3.58694328
H        4.15288895       3.41297996      -6.13987016
H        4.39235306       5.01055451      -6.21129897
C       11.94042869       1.40166121       1.93371303
C       12.17004776       1.18866308       3.09833437
Br      12.54132236       0.84426313       4.98142859
C       -1.79148454      -1.79148454      -1.79148454
C       -2.05272639      -1.41439149      -3.10332295
C       -2.85541928      -2.22516367      -3.91084144
C       -3.40354403      -3.43233387      -3.42690543
C       -3.13956345      -3.77414088      -2.08469172
C       -2.33315671      -2.96409995      -1.27602539
Cl      -3.79769267      -5.19616863      -1.34848790
C       -4.28424653      -4.30476487      -4.31098128
H       -4.16132638      -5.34922481      -4.00582265
C       -5.67690257      -3.93354506      -4.22250387
C       -6.82474952      -3.62757825      -4.14957617
C       -8.29024732      -3.21127364      -4.00891173
C       -9.43159326      -2.88206822      -3.84487827
C      -10.82788074      -2.47501788      -3.60105269
H      -10.98479484      -1.57019678      -4.19760187
C      -11.11772020      -2.18992218      -2.13238046
C      -10.53614286      -2.98741218      -1.12179762
C      -10.79388372      -2.75048011       0.23063542
C      -11.65401123      -1.72227641       0.59716400
C      -12.26423073      -0.93545065      -0.37450444
C      -12.00253990      -1.17088531      -1.72969501
Cl     -12.83646946      -0.17176897      -2.86888705
N      -11.71873283      -3.51611626      -4.10690545
N       -3.86971374      -4.28286868      -5.72070426
H       -1.63793001      -0.49588311      -3.51135886
H       -3.04169243      -1.90338324      -4.93306098
H       -2.13332979      -3.25068658      -0.24668593
H       -9.86464999      -3.80563371      -1.37992758
H      -10.31838018      -3.37410682       0.98412202
H      -12.94712922      -0.14144444      -0.08233740
H      -12.68169180      -3.21477641      -3.97021849
H      -11.59730180      -4.35745406      -3.54757346
H       -4.16768690      -3.40226152      -6.13579064
H       -4.39889685      -5.00070445      -6.21460524
C      -11.92199251      -1.47696432       1.99057995
C      -12.14642683      -1.27151544       3.15756581
Br     -12.50931816      -0.93932198       5.04448324
C       -1.79148454       1.79148454       1.79148454
C       -3.08580875       1.38787547       2.09675660
C       -3.88977811       2.19327436       2.90837191
C       -3.41297551       3.41124434       3.43856348
C       -2.10427910       3.80379564       3.09032132
C       -1.29722773       2.99619972       2.27985460
Cl      -1.41755654       5.30073669       3.62405597
C       -4.29895508       4.28655753       4.31448007
H       -3.66397650       4.83167896       5.02071837
C       -5.07429758       5.22313774       3.53551618
C       -5.71334393       5.99508043       2.89347957
C       -6.49966231       6.98220278       2.02856761
C       -7.07047910       7.76554081       1.32251983
C       -7.73598321       8.73519108       0.43277703
H       -8.57551661       8.19824153      -0.02116464
C       -6.81431478       9.27824437      -0.65253630
C       -5.45857274       9.55317265      -0.36639274
C       -4.59699540      10.05938287      -1.34264988
C       -5.08054264      10.31817101      -2.61959002
C       -6.41708999      10.08376208      -2.92666625
C       -7.27925665       9.57277183      -1.94890826
Cl      -8.93236352       9.35170868      -2.40694672
N       -8.27461326       9.82591338       1.24122790
N       -5.20542108       3.50274385       5.16512175
H       -3.48131349       0.45039523       1.71346326
H       -4.89810549       1.85046157       3.12956960
H       -0.28725861       3.31211252       2.03133117
H       -5.05399934       9.36807917       0.62813278
H       -3.55510987      10.24638138      -1.09312626
H       -6.79304635      10.30127667      -3.92341195
H       -8.76499777      10.47394282       0.62774612
H       -7.50311178      10.34603231       1.65318523
H       -5.96740619       3.14733201       4.59100087
H       -5.64723543       4.14172186       5.82524926
C       -4.19450607      10.84101760      -3.62714679
C       -3.45245043      11.27890161      -4.47097558
Br      -2.25260924      11.98692303      -5.83537536
C        1.79148454      -1.79148454       1.79148454
C        3.17322183      -1.64902626       1.74819273
C        3.97869574      -2.45293526       2.55979339
C        3.41922514      -3.40655285       3.43700534
C        2.01587370      -3.54313431       3.43938805
C        1.20813275      -2.73619967       2.62894964
Cl       1.20479476      -4.71382317       4.42373128
C        4.30486212      -4.28422421       4.31090635
H        3.76056987      -4.52596654       5.22983742
C        4.69012581      -5.50324640       3.63957929
C        5.00766295      -6.50798198       3.08625900
C        5.37407667      -7.79382432       2.34253171
C        5.60951872      -8.80556807       1.74345295
C        5.85808705     -10.05137297       0.99449130
H        6.65459966      -9.81778402       0.28020981
C        4.62547933     -10.55869260       0.25585092
C        3.34607789     -10.45381917       0.84545560
C        2.20297222     -10.91955189       0.19120429
C        2.32063558     -11.51667128      -1.05818322
C        3.56930866     -11.65968760      -1.65481045
C        4.71421566     -11.18924776      -1.00034320
Cl       6.22767765     -11.44647123      -1.79702340
N        6.35630167     -11.06683187       1.91862100
N        5.51347745      -3.58725506       4.77255417
H        3.63681175      -0.91700017       1.09136005
H        5.05656272      -2.31795069       2.50362325
H        0.12738318      -2.85021415       2.65310498
H        3.22466426      -9.99799851       1.82754851
H        1.23114240     -10.81024968       0.66697291
H        3.65684159     -12.14024853      -2.62617905
H        6.56161225     -11.91350058       1.39157388
H        5.61815695     -11.30793568       2.57623669
H        6.17427178      -3.53143402       4.00003327
H        5.96910686      -4.17662176       5.46847792
C        1.14382573     -11.99845701      -1.73390587
C        0.15824749     -12.40195256      -2.29982359
Br      -1.43534918     -13.05437075      -3.21486467
C       -0.00445707       0.01189536      -1.78238275
H       -0.66409135       0.67374010      -2.43557963
H        0.65740317      -0.63156657      -2.45157240
C       -0.90989263      -0.90692880      -0.91072765
C        0.90977584       0.90977584      -0.90977584
C       -0.00465871       1.77757030       0.00794375
H       -0.66225468       2.44313916      -0.64384735
H        0.64322798       2.43503045       0.67728295
C       -1.78241447       0.00034974      -0.00472694
H       -2.45427497      -0.65498947       0.64260836
H       -2.43311707       0.67328779      -0.65473579
C       -0.91132561       0.90220522       0.91563759
C       -0.01476271      -0.02253852       1.78660255
H       -0.67934791      -0.69751639       2.42135241
H        0.63392994       0.61504881       2.47327442
C        0.01484550      -1.77751727      -0.01636693
H        0.67870853      -2.42144646      -0.68295456
H       -0.62264859      -2.45592969       0.64226336
C        1.78714474       0.01002794       0.00389507
H        2.44202412       0.67113390       0.66197326
H        2.45385902      -0.65136977      -0.64189061
C        0.91606151      -0.90478549       0.90901405
