141
Properties=species:S:1:pos:R:3 pbc="F F F"
C        0.00000000       0.00000000       0.00000000
C        0.88158051       0.88158051      -0.88158051
C        1.13367447       0.51021584      -2.19683843
C        1.93638519       1.32101401      -3.00431311
C        2.49367020       2.52255596      -2.51684510
C        2.23881000       2.85848536      -1.17138862
C        1.43239573       2.04843225      -0.36274200
Cl       2.90862749       4.27291296      -0.43109669
C        3.37430951       3.39500553      -3.40096556
H        3.25871870       4.43844078      -3.08950228
C        4.76538543       3.01578810      -3.32206590
C        5.91193003       2.70322952      -3.25703231
C        7.37588264       2.27825127      -3.12658671
C        8.51629258       1.94199476      -2.97054033
C        9.91164481       1.52608396      -2.73651047
H       10.06041241       0.62368331      -3.33878569
C       10.20786494       1.23144826      -1.27099757
C        9.63610123       2.02656625      -0.25297311
C        9.89985715       1.78089798       1.09673880
C       10.75635265       0.74608331       1.45302440
C       11.35702597      -0.03873706       0.47381517
C       11.08929716       0.20547018      -0.87864081
Cl      11.91161474      -0.79193332      -2.02773199
Br      11.11616091       0.41231971       3.27796165
N       10.80539446       2.56508559      -3.24156241
N        2.95204996       3.38301200      -4.80851264
H        0.71169297      -0.40380594      -2.60757288
H        2.11537874       1.00379158      -4.02925427
H        1.23969603       2.33049648       0.66920228
H        8.96767957       2.84979619      -0.50302344
H        9.43182957       2.40298167       1.85615832
H       12.03716850      -0.83799902       0.75797049
H       11.76742630       2.25780669      -3.11174164
H       10.69156272       3.40401528      -2.67703926
H        3.24298492       2.50307594      -5.22996613
H        3.48244904       4.10065048      -5.30139495
C       -0.88158051      -0.88158051      -0.88158051
C       -2.25579429      -0.67623337      -0.90870109
C       -3.06092444      -1.48042943      -1.72035844
C       -2.50794679      -2.49749863      -2.52762583
C       -1.11370226      -2.69604268      -2.45893904
C       -0.30611809      -1.88898141      -1.64847048
Cl      -0.31494719      -3.94584025      -3.35184969
C       -3.39373433      -3.37464264      -3.40190364
H       -2.82107544      -3.68256066      -4.28302566
C       -3.86440640      -4.54299903      -2.69583399
C       -4.25233849      -5.50597513      -2.11387824
C       -4.71050062      -6.73849460      -1.33172541
C       -5.01885699      -7.70997920      -0.69999148
C       -5.35779277      -8.90751858       0.09107210
H       -6.17347054      -8.60605164       0.75664077
C       -4.18392592      -9.43414741       0.90776255
C       -2.87619090      -9.41345112       0.37400143
C       -1.78597910      -9.89852561       1.10048837
C       -1.98638147     -10.43132379       2.36829370
C       -3.26552938     -10.49111972       2.91217535
C       -4.35731117     -10.00127804       2.18518105
Cl      -5.91485224     -10.15405442       2.92149325
Br      -0.51373053     -11.08958550       3.35279705
N       -5.86111415      -9.94164700      -0.80928131
N       -4.54713538      -2.64698325      -3.94945598
H       -2.71359749       0.10524452      -0.30710694
H       -4.13280894      -1.29539773      -1.72021791
H        0.76819718      -2.05173050      -1.61745692
H       -2.69042674      -9.00944346      -0.62062901
H       -0.79001836      -9.85451794       0.66588340
H       -3.41815388     -10.92181370       3.89876860
H       -6.12856386     -10.75306717      -0.25534361
H       -5.10654133     -10.24540379      -1.42067213
H       -5.23818838      -2.52622948      -3.21160914
H       -4.99832190      -3.24720793      -4.63896464
C       -0.88158051       0.88158051       0.88158051
C       -1.07536441       0.54853334       2.21683100
C       -1.87819831       1.35949007       3.02402394
C       -2.49389996       2.52333993       2.51583137
C       -2.29713168       2.82002200       1.15153030
C       -1.49066501       2.00989441       0.34301055
Cl      -3.04137968       4.18372720       0.38753025
C       -3.37413110       3.39592239       3.40022711
H       -3.30617655       4.43103765       3.04944757
C       -4.75282128       2.96690336       3.38351478
C       -5.88915742       2.61329748       3.36973696
C       -7.34077848       2.13426463       3.30567751
C       -8.47325593       1.75398302       3.20158872
C       -9.86021472       1.28268777       3.03133676
H       -9.95636499       0.39757993       3.66893649
C      -10.19567871       0.92651794       1.58811412
C       -9.68744014       1.70421803       0.52398242
C       -9.98825747       1.40215600      -0.80639714
C      -10.81931436       0.32677330      -1.09667609
C      -11.35811610      -0.44299964      -0.07064271
C      -11.05318539      -0.14216433       1.26238708
Cl     -11.80005523      -1.12582509       2.47318328
Br     -11.22917287      -0.08334676      -2.89530715
N      -10.77236120       2.30778017       3.53190110
N       -2.90392383       3.44808625       4.79156453
H       -0.60758049      -0.33547203       2.64335145
H       -2.01079036       1.07275660       4.06487762
H       -1.34338010       2.26173241      -0.70412229
H       -9.04037947       2.55809964       0.72202009
H       -9.56869086       2.01262790      -1.60266585
H      -12.01889420      -1.27454721      -0.30314800
H      -11.72680478       1.96345512       3.44671473
H      -10.70757365       3.12963534       2.93540826
H       -3.14903428       2.57417531       5.25281741
H       -3.44221894       4.16417310       5.27810242
C        0.88158051      -0.88158051       0.88158051
C        0.66202932      -2.25316041       0.92553902
C        1.47333435      -3.05960879       1.72876918
C        2.52518830      -2.51308134       2.49480162
C        2.70616402      -1.11557908       2.44694088
C        1.89587100      -0.30739564       1.64030334
Cl       3.92054798      -0.31025720       3.38183195
C        3.39823294      -3.39810872       3.37393894
H        4.39705906      -2.95356624       3.43603646
C        2.85106014      -3.55066695       4.70151234
C        2.40006993      -3.67640456       5.79571737
C        1.79242284      -3.79334110       7.19495669
C        1.30668770      -3.83148243       8.29065754
C        0.70220179      -3.83626522       9.63577223
H       -0.12292741      -4.55483930       9.59096953
C        0.18188056      -2.46826042      10.06016979
C        0.89566299      -1.29672119       9.72325640
C        0.44279734      -0.03258536      10.10863363
C       -0.72372187       0.08211993      10.85525336
C       -1.43594789      -1.05387048      11.22655116
C       -0.98368692      -2.32034816      10.83674691
Cl      -1.90848388      -3.67807275      11.37782454
Br      -1.33798468       1.79073752      11.37924117
N        1.68701740      -4.33044244      10.59458263
N        3.62388716      -4.72828454       2.79140291
H       -0.13302629      -2.70844586       0.34004034
H        1.27691038      -4.12938080       1.74213340
H        2.05837314       0.76696542       1.60958251
H        1.81769117      -1.35684639       9.14596165
H        1.00862314       0.85029279       9.82032256
H       -2.34031866      -0.95893138      11.82258628
H        1.25425961      -4.36718185      11.51553318
H        2.45061966      -3.66113963      10.66085796
H        2.78002757      -5.28525065       2.91074878
H        4.33353523      -5.19976165       3.35119759
