157
Properties=species:S:1:pos:R:3 pbc="F F F"
C        0.00000000       0.00000000       0.00000000
C        0.85548377       0.85548377      -0.85548377
H        0.34105977       1.60869012      -1.43784634
C        2.27419508       0.67489532      -0.90962873
H        2.72652943      -0.12881405      -0.33629790
C        3.18484660       1.45882134      -1.74087595
C        3.84385419       2.56599719      -1.20327330
C        4.70496485       3.32843117      -2.00191394
C        4.92355922       3.00246625      -3.35326449
C        4.22759149       1.90904823      -3.88871709
C        3.38204634       1.14530780      -3.08584410
F        2.75259983       0.09541299      -3.63585723
C        5.83658032       3.87633363      -4.19685568
H        6.53428316       4.39030517      -3.52068293
C        6.71742150       3.12975847      -5.27670093
H        6.04153614       2.60382817      -5.96253569
C        7.69208223       2.12064559      -4.69042964
C        7.54296417       0.75606066      -4.98403858
C        8.44301254      -0.19474562      -4.48601261
C        9.52789871       0.19730492      -3.69527871
C        9.65777743       1.55438803      -3.38380161
C        8.75971381       2.50754069      -3.86884460
F       10.67379884       1.97735301      -2.61551406
C       10.49495682      -0.77539336      -3.16908634
H       11.06918387      -0.44956882      -2.30384049
C       10.81499069      -2.06094712      -3.71836306
H       10.40291512      -2.43252856      -4.64629859
Br      12.05985006      -3.15918175      -2.90852742
N        7.44107163       4.10226980      -6.13525401
N        5.02541041       4.92035594      -4.85206232
H        3.68782203       2.84955568      -0.16467962
H        5.19675088       4.19402822      -1.56138582
H        4.31270051       1.63959520      -4.93604913
H        6.71660899       0.41297453      -5.60539196
H        8.27468124      -1.24186703      -4.72492938
H        8.92159717       3.54708664      -3.60170636
H        7.94825425       3.57804869      -6.84861800
H        8.14933505       4.58098179      -5.58314721
H        4.79340512       5.64309757      -4.17631453
H        5.61980911       5.34997743      -5.56708103
C       -0.85548377      -0.85548377      -0.85548377
H       -0.40717534      -1.77688244      -1.20353845
C       -2.18774584      -0.46632296      -1.20465032
H       -2.56490630       0.49249442      -0.86160140
C       -3.08700488      -1.23915032      -2.05838868
C       -4.01996343      -2.10634940      -1.48681185
C       -4.87230449      -2.86002016      -2.30298530
C       -4.80882919      -2.76493672      -3.70552406
C       -3.84299062      -1.91651020      -4.26585598
C       -3.00615745      -1.15831164      -3.44872915
F       -2.11071139      -0.34429727      -4.02886139
C       -5.72543102      -3.62688970      -4.55744891
H       -6.60569363      -3.88687090      -3.95270674
C       -6.26722377      -2.96811782      -5.88853932
H       -5.40431751      -2.69492224      -6.50866026
C       -7.11382732      -1.72517810      -5.66415204
C       -6.66497180      -0.48175387      -6.13633774
C       -7.43632751       0.67619925      -5.97415128
C       -8.68690780       0.61726507      -5.35083962
C       -9.11852547      -0.61855449      -4.85888713
C       -8.35159006      -1.77601400      -5.00849505
F      -10.30465762      -0.72258317      -4.23942512
C       -9.52352368       1.81235622      -5.17748234
H      -10.27846239       1.75092507      -4.39591822
C       -9.50385226       3.00506493      -5.97361929
H       -8.88750149       3.12463860      -6.85382225
Br     -10.63083506       4.41936354      -5.59772421
N       -7.01657219      -3.95844995      -6.70357331
N       -5.03297127      -4.89083391      -4.87402348
H       -4.08659296      -2.20954961      -0.40591476
H       -5.58218872      -3.53788463      -1.83209156
H       -3.70890921      -1.83984873      -5.33958690
H       -5.70099128      -0.39737394      -6.63661026
H       -7.03750043       1.61924904      -6.33949219
H       -8.74719968      -2.70740797      -4.61578252
H       -7.29621523      -3.50500655      -7.57369916
H       -7.88078420      -4.20603684      -6.22664302
H       -5.05158904      -5.50026397      -4.06096421
H       -5.57715118      -5.34833411      -5.61138227
C       -0.85548377       0.85548377       0.85548377
H       -1.92277291       0.70327043       0.76155289
C       -0.29049664       1.83089381       1.73732868
H        0.78665612       1.96788419       1.75278522
C       -1.06171861       2.72689460       2.59593067
C       -1.30050715       2.38444921       3.92816832
C       -2.05265287       3.23369512       4.74896197
C       -2.58327524       4.44013428       4.25588045
C       -2.36520262       4.75364383       2.90651035
C       -1.60435564       3.91143549       2.09740710
F       -1.40428775       4.26203751       0.81754480
C       -3.42546321       5.31662164       5.16768478
H       -3.14288006       5.09571126       6.20667994
C       -3.26912994       6.87814929       4.97660168
H       -3.54193702       7.12339429       3.94256870
C       -1.86460912       7.39681251       5.24173583
C       -1.12266256       7.96574162       4.19465923
C        0.16103647       8.48188705       4.41342896
C        0.72954838       8.45902083       5.69100990
C       -0.00237422       7.86794377       6.72564909
C       -1.27906306       7.34299277       6.51404328
F        0.50742254       7.80827349       7.96581495
C        2.06845228       9.00375850       5.95334358
H        2.56116668       8.63401937       6.85060285
C        2.75133803      10.01880906       5.20493560
H        2.30617660      10.54862837       4.37423338
Br       4.44705642      10.57463038       5.68162177
N       -4.25358905       7.61557800       5.80942839
N       -4.84335607       4.93661161       5.01786098
H       -0.91227963       1.45369121       4.33608649
H       -2.23459276       2.93706510       5.78050707
H       -2.79236957       5.64211805       2.45385723
H       -1.53577773       8.01146278       3.18773498
H        0.70410977       8.89484071       3.56701264
H       -1.80142462       6.90844199       7.36052355
H       -4.15293504       8.61123220       5.61075370
H       -4.01906782       7.50131727       6.79307896
H       -5.01768270       4.07215600       5.52297852
H       -5.39484903       5.67155652       5.47046202
C        0.85548377      -0.85548377       0.85548377
H        1.73802979      -1.26655551       0.38301093
C        0.51435110      -1.12541370       2.21895433
H       -0.40912124      -0.72077874       2.62235579
C        1.28950213      -1.97327544       3.12176631
C        2.22471657      -1.40180543       3.98660269
C        2.98022975      -2.21339400       4.84168621
C        2.81907678      -3.61130763       4.84890555
C        1.90154853      -4.17392709       3.94988118
C        1.14229297      -3.36047362       3.11043164
F        0.26153613      -3.94130141       2.28103251
C        3.68406430      -4.46078851       5.76491682
H        4.01236431      -3.82991045       6.60299650
C        2.99224903      -5.73346656       6.39816532
H        2.65088916      -6.37828315       5.57872769
C        1.80208907      -5.41263684       7.28843154
C        0.51881076      -5.84531194       6.91894071
C       -0.59290567      -5.59396045       7.73322475
C       -0.44688808      -4.91834684       8.94902360
C        0.82887906      -4.46636552       9.30072250
C        1.94087926      -4.70494259       8.49027725
F        1.01667600      -3.79963151      10.45035840
C       -1.59207574      -4.65114952       9.82957602
H       -1.45984610      -3.84009961      10.54320203
C       -2.81908263      -5.39011814       9.90137112
H       -3.00723230      -6.29059677       9.33332067
Br      -4.16015255      -4.89735871      11.07198956
N        3.97910308      -6.55974663       7.13974574
N        4.89830824      -4.86764707       5.03187335
H        2.37960761      -0.32508759       3.99736213
H        3.71143167      -1.74350967       5.49722358
H        1.77027575      -5.24779100       3.87027809
H        0.36649427      -6.38401742       5.98446379
H       -1.56926721      -5.93195463       7.39505616
H        2.90669270      -4.33922968       8.82446778
H        3.50058691      -7.39397302       7.48036101
H        4.28851082      -6.05654590       7.96840734
H        5.54399610      -4.08428009       4.98454103
H        5.34727862      -5.60049762       5.58909133
