165
Properties=species:S:1:pos:R:3 pbc="F F F"
C        0.00000000       0.00000000       0.00000000
C        0.85548377       0.85548377      -0.85548377
H        0.34105977       1.60869012      -1.43784634
C        2.27419508       0.67489532      -0.90962873
H        2.72652943      -0.12881405      -0.33629790
C        3.18484660       1.45882134      -1.74087595
C        3.84385419       2.56599719      -1.20327330
C        4.70496485       3.32843117      -2.00191394
C        4.92355922       3.00246625      -3.35326449
C        4.22759149       1.90904823      -3.88871709
C        3.38204634       1.14530780      -3.08584410
F        2.75259983       0.09541299      -3.63585723
C        5.83658032       3.87633363      -4.19685568
H        6.53428316       4.39030517      -3.52068293
C        6.71742150       3.12975847      -5.27670093
H        6.04153614       2.60382817      -5.96253569
C        7.69208223       2.12064559      -4.69042964
C        7.54296417       0.75606066      -4.98403858
C        8.44301254      -0.19474562      -4.48601261
C        9.52789871       0.19730492      -3.69527871
C        9.65777743       1.55438803      -3.38380161
C        8.75971381       2.50754069      -3.86884460
F       10.67379884       1.97735301      -2.61551406
C       10.49495682      -0.77539336      -3.16908634
H       11.06918387      -0.44956882      -2.30384049
C       10.81499069      -2.06094712      -3.71836306
H       10.40291512      -2.43252856      -4.64629859
N        7.44107163       4.10226980      -6.13525401
N        5.02541041       4.92035594      -4.85206232
H        3.68782203       2.84955568      -0.16467962
H        5.19675088       4.19402822      -1.56138582
H        4.31270051       1.63959520      -4.93604913
H        6.71660899       0.41297453      -5.60539196
H        8.27468124      -1.24186703      -4.72492938
H        8.92159717       3.54708664      -3.60170636
H        7.94825425       3.57804869      -6.84861800
H        8.14933505       4.58098179      -5.58314721
H        4.79340512       5.64309757      -4.17631453
H        5.61980911       5.34997743      -5.56708103
C       11.78550503      -2.91715022      -3.08700090
C       12.59831078      -3.63422031      -2.55823509
Br      13.91254895      -4.79366201      -1.70326550
C       -0.85548377      -0.85548377      -0.85548377
H       -0.48657950      -1.85479732      -1.04621941
C       -2.08604742      -0.37053791      -1.40213379
H       -2.37969464       0.65747186      -1.21179051
C       -2.97497520      -1.13954109      -2.27002759
C       -4.06138689      -1.82655973      -1.72517806
C       -4.90573407      -2.57716873      -2.55240715
C       -4.68122093      -2.65890372      -3.93916531
C       -3.56582414      -1.99258554      -4.46694712
C       -2.73633948      -1.23572996      -3.64112879
F       -1.69243186      -0.59820669      -4.19323150
C       -5.59818369      -3.51378876      -4.79779718
H       -6.56307923      -3.60319098      -4.27900106
C       -5.91085824      -2.96569233      -6.24733033
H       -4.95985258      -2.86323754      -6.78480988
C       -6.62089458      -1.62120494      -6.26105793
C       -5.97764436      -0.49899973      -6.80641932
C       -6.61697204       0.74605723      -6.86336473
C       -7.92514243       0.89702516      -6.39236508
C       -8.55258519      -0.21714511      -5.82623679
C       -7.91890970      -1.45972725      -5.75746216
F       -9.80216353      -0.11805748      -5.34644490
C       -8.62560619       2.18707804      -6.45012165
H       -9.46188987       2.30146507      -5.76303074
C       -8.37728558       3.26628124      -7.36140228
H       -7.66020198       3.21227120      -8.16875438
N       -6.68215919      -3.96077711      -7.03565914
N       -5.03291555      -4.87356646      -4.89134666
H       -4.25549265      -1.79120013      -0.65536455
H       -5.73840736      -3.11336921      -2.10038834
H       -3.30911054      -2.06050896      -5.51872534
H       -4.96246040      -0.57931070      -7.19320438
H       -6.07069946       1.59003822      -7.27708234
H       -8.46354003      -2.28925632      -5.31759381
H       -6.81025907      -3.58797273      -7.97668914
H       -7.61601442      -4.05504813      -6.64240151
H       -5.21182548      -5.37519514      -4.02579660
H       -5.54594629      -5.35544531      -5.63547596
C       -9.14316578       4.48397219      -7.29616211
C       -9.78459045       5.50378836      -7.24152347
Br     -10.82171988       7.15274485      -7.15317741
C       -0.85548377       0.85548377       0.85548377
H       -0.65167102       1.91763945       0.81828575
C       -1.87630235       0.29501419       1.68740259
H       -2.00172445      -0.78328946       1.71557830
C       -2.74642784       1.06366191       2.57445413
C       -4.01160086       1.46238721       2.13913661
C       -4.84135605       2.21259387       2.98136004
C       -4.42404271       2.58167434       4.27357291
C       -3.13717930       2.20438578       4.68379172
C       -2.32048442       1.44607705       3.84663677
F       -1.10455134       1.09015964       4.28915908
C       -5.33860784       3.42765055       5.14351125
H       -6.37189313       3.26984328       4.80353486
C       -5.31721444       3.11383757       6.69282889
H       -4.29212313       3.26026298       7.05551389
C       -5.75707677       1.70147710       7.04460359
C       -4.84197372       0.81188897       7.62920072
C       -5.22480203      -0.48507335       7.99455085
C       -6.53971287      -0.92049414       7.80126362
C       -7.44120462      -0.04008068       7.19484314
C       -7.06523674       1.25143001       6.81943235
F       -8.71013991      -0.41769876       6.97422476
C       -6.97348626      -2.27043751       8.18560105
H       -7.87046984      -2.63712976       7.69011546
C       -6.39307799      -3.11205032       9.19137896
H       -5.58210587      -2.80027990       9.83485919
N       -6.12703698       4.10549891       7.44605956
N       -5.02549902       4.85219919       4.92013045
H       -4.35892298       1.20131177       1.14182259
H       -5.81813460       2.52122107       2.61280925
H       -2.73786020       2.50343433       5.64705031
H       -3.81149391       1.11793637       7.80554519
H       -4.47535553      -1.14379009       8.42617814
H       -7.81447455       1.89156288       6.36435274
H       -6.03733190       3.89686600       8.44072305
H       -7.11167695       3.98030376       7.22148334
H       -5.42524225       5.15229689       4.03527809
H       -5.49707055       5.37748998       5.66230703
C       -6.92267581      -4.42448474       9.45716464
C       -7.36621398      -5.52364858       9.67976016
Br      -8.08337769      -7.30090353      10.03967828
C        0.85548377      -0.85548377       0.85548377
H        0.76452177      -1.92262414       0.70045032
C        1.73357870      -0.29073301       1.83440742
H        1.74607978       0.78611739       1.97405089
C        2.59187710      -1.06204655       2.73062023
C        3.92552003      -1.29676406       2.39084059
C        4.74607743      -2.04897947       3.24025306
C        4.25136049      -2.58373375       4.44419573
C        2.90070594      -2.36970320       4.75494767
C        2.09180059      -1.60877532       3.91262232
F        0.81060716      -1.41267088       4.26059201
C        5.16308110      -3.42583615       5.32085239
H        6.20191865      -3.14019321       5.10315941
C        4.96782574      -3.27376989       6.88228527
H        3.93386744      -3.54968401       7.12434856
C        5.22827886      -1.86987624       7.40500236
C        4.17802011      -1.13186250       7.97318080
C        4.39240937       0.15110360       8.49297377
C        5.66865409       0.72277090       8.47459916
C        6.70650488      -0.00519522       7.88426697
C        6.49928382      -1.28111233       7.35570295
F        7.94556710       0.50775601       7.82885482
C        5.92640317       2.06097774       9.02322436
H        6.82335554       2.55676878       8.65686879
C        5.17387152       2.73957024      10.03810534
H        4.34297122       2.29110378      10.56481770
N        5.80125335      -4.25799584       7.61934625
N        5.01763344      -4.84315928       4.93703594
H        4.33475122      -0.90528187       1.46202424
H        5.77877988      -2.22769056       2.94569448
H        2.44693756      -2.80013030       5.64127699
H        3.17199661      -1.54753223       8.01544664
H        3.54367278       0.69111240       8.90518320
H        7.34808639      -1.80035678       6.92194699
H        5.59991646      -4.16024918       8.61475531
H        6.78460463      -4.02080863       7.50805080
H        5.52527209      -5.01415325       4.07339188
H        5.46978949      -5.39533910       5.67173898
C        5.54123096       4.06142200      10.47554674
C        5.84889449       5.16847284      10.84190391
Br       6.34636040       6.95848043      11.43427247
