181
Properties=species:S:1:pos:R:3 pbc="F F F"
C        0.00000000       0.00000000       0.00000000
C        0.85722055       0.85722055      -0.85722055
H        1.26338883       1.72981535      -0.36711912
C        1.10596101       0.52260443      -2.22876735
H        0.62583042      -0.38190015      -2.59953200
C        1.92963603       1.24668427      -3.20923116
C        2.61771138       2.42345837      -2.89316040
C        3.39176091       3.08335388      -3.85818593
C        3.50298662       2.58392241      -5.16593428
C        2.81421313       1.40242835      -5.48047512
C        2.04346836       0.75425953      -4.51543638
F        1.40416683      -0.37174792      -4.87105511
C        4.35291028       3.31204201      -6.19279753
H        4.77424428       4.20729272      -5.71870539
C        5.44598665       2.50065667      -6.67442701
C        6.34691453       1.83191945      -7.07138913
C        7.51683584       0.99361553      -7.58867499
C        8.45366381       0.35865197      -7.98742578
C        9.62488338      -0.40048400      -8.45085258
H        9.73780249      -1.27457107      -7.79839336
C       10.89346491       0.43277307      -8.38237336
C       11.04547090       1.61773639      -9.12391175
C       12.21323119       2.38467090      -9.02595784
C       13.25423017       1.99767907      -8.17334885
C       13.10702623       0.80791880      -7.45269545
C       11.94919237       0.03469653      -7.54980647
F       14.08479897       0.37152251      -6.64388765
C       14.45769832       2.83595467      -8.09765090
H       14.66761256       3.45069422      -8.96970418
C       15.33970683       2.97829506      -6.97609336
H       15.18906229       2.46933380      -6.03342354
N        9.39142537      -0.90404886      -9.80045990
N        3.53464552       3.78016704      -7.30941288
H        2.56801269       2.85368128      -1.89683443
H        3.90894612       3.99906365      -3.57572557
H        2.86803752       0.96981112      -6.47527417
H       10.24541435       1.96408535      -9.77603036
H       12.28891262       3.29980411      -9.61020431
H       11.88582489      -0.87559571      -6.95898078
H       10.23593532      -1.37147043     -10.12401090
H        9.23974616      -0.12017585     -10.42994283
H        3.16914125       2.97465381      -7.81251898
H        4.13557729       4.27117920      -7.96839699
C       16.46811928       3.87132333      -7.02887468
C       17.41316470       4.61923450      -7.07307904
Br      18.94122322       5.82854362      -7.14455375
C       -0.85722055      -0.85722055      -0.85722055
H       -0.65834077      -0.78556153      -1.91642100
C       -1.86431495      -1.70430083      -0.28871702
H       -1.96583011      -1.67280775       0.79517560
C       -2.78677698      -2.61644498      -0.98232950
C       -2.78370253      -2.77836333      -2.37226428
C       -3.68088520      -3.65823179      -2.99418373
C       -4.60456545      -4.40409843      -2.24417943
C       -4.60463386      -4.24224625      -0.85023648
C       -3.71114084      -3.36209842      -0.23992502
F       -3.75565999      -3.24479673       1.09698271
C       -5.56228389      -5.35641238      -2.93905355
H       -5.38224781      -5.29821901      -4.01977557
C       -5.37123018      -6.72612750      -2.52371266
C       -5.21376513      -7.85505872      -2.18139925
C       -5.02266910      -9.31360434      -1.76285293
C       -4.87028346     -10.46563936      -1.46381873
C       -4.66252489     -11.88274734      -1.12997974
H       -3.71566731     -11.96321422      -0.58274325
C       -4.58504638     -12.74518361      -2.37838135
C       -5.66025884     -12.84824587      -3.27861433
C       -5.55820384     -13.62847769      -4.43717839
C       -4.37472870     -14.31428257      -4.73624683
C       -3.31469354     -14.22492992      -3.82801701
C       -3.41085125     -13.45479867      -2.66804546
F       -2.16749764     -14.88571945      -4.04699205
C       -4.31052554     -15.11528760      -5.96549075
H       -5.26122540     -15.47502435      -6.35176121
C       -3.14124220     -15.41237360      -6.74047946
H       -2.15386310     -15.04837719      -6.48957934
N       -5.71483479     -12.34313633      -0.22986529
N       -6.94926290      -4.94791330      -2.72704924
H       -2.08997740      -2.22743666      -3.00111434
H       -3.65134395      -3.75387948      -4.07851192
H       -5.29495946      -4.79685036      -0.22131300
H       -6.58622587     -12.30667174      -3.09263245
H       -6.41005341     -13.67593760      -5.11293003
H       -2.55177715     -13.41427206      -2.00316075
H       -5.58705340     -13.33910983      -0.06231255
H       -6.61663600     -12.24404755      -0.68882958
H       -7.17484817      -5.04223049      -1.73923537
H       -7.55813582      -5.60140542      -3.21561224
C       -3.23179834     -16.18292120      -7.95359775
C       -3.30763912     -16.82825481      -8.96958432
Br      -3.43026723     -17.87170469     -10.61234866
C       -0.85722055       0.85722055       0.85722055
H       -0.32581661       1.59761828       1.43688841
C       -2.28029621       0.68753303       0.88950355
H       -2.68618670      -0.10454417       0.26181973
C       -3.27197384       1.44750495       1.66607267
C       -2.91713356       2.50018934       2.51700725
C       -3.89423211       3.19872699       3.24034163
C       -5.25445529       2.86725189       3.13113612
C       -5.60871437       1.81288411       2.27551812
C       -4.62996621       1.12083553       1.56236253
F       -5.02455157       0.11954870       0.75937374
C       -6.29605832       3.64254914       3.91914236
H       -5.77894563       4.40010385       4.52119291
C       -7.24199855       4.31728471       3.06178708
C       -8.02164808       4.87341633       2.35515870
C       -9.02908751       5.60394850       1.46609034
C       -9.81335831       6.20292009       0.78346315
C      -10.75350305       6.96961675      -0.04786784
H      -10.37272515       6.96510096      -1.07620133
C      -10.87404193       8.40786468       0.42670472
C      -11.34589066       8.72963143       1.71159695
C      -11.42437168      10.06128178       2.13820646
C      -11.01925950      11.10659441       1.29940418
C      -10.56930928      10.78327470       0.01505649
C      -10.49432358       9.45922188      -0.41985008
F      -10.19752652      11.74566585      -0.84298323
C      -11.11303226      12.48729547       1.79097617
H      -11.84954819      12.66822018       2.57024259
C      -10.29406817      13.59814768       1.40187940
H       -9.48562219      13.51879708       0.68740035
N      -12.05336836       6.30684248      -0.07237444
N       -6.99369503       2.76964790       4.86088252
H       -1.88000101       2.79980252       2.63872487
H       -3.57882563       4.00898604       3.89592367
H       -6.64615598       1.51675309       2.15021374
H      -11.64346399       7.94118619       2.40087988
H      -11.78740971      10.26839244       3.14311889
H      -10.12767007       9.26643827      -1.42489838
H      -12.70367572       6.88527105      -0.60047099
H      -12.42147823       6.25413792       0.87389697
H       -7.53416492       2.08372510       4.33842401
H       -7.67301583       3.32575178       5.37638587
C      -10.47346771      14.89644329       1.99840629
C      -10.62371483      15.98376585       2.49799757
Br     -10.86665171      17.74187448       3.30579440
C        0.85722055      -0.85722055       0.85722055
H        1.60663536      -0.32720725       1.42648070
C        0.67690429      -2.27865703       0.90177148
H       -0.11093425      -2.68520121       0.26919531
C        1.42280385      -3.26816438       1.69458323
C        2.46208218      -2.91125658       2.56099138
C        3.14844726      -3.88647786       3.29837560
C        2.81328026      -5.24613166       3.19343138
C        1.76923479      -5.60198267       2.32589913
C        1.09403950      -4.62583367       1.59329110
F        0.10430218      -5.02220022       0.77697162
C        3.56616568      -6.28427828       4.00730585
H        4.33823285      -5.76940374       4.59260580
C        2.70423847      -6.99323084       4.92360102
C        1.99384330      -7.57755369       5.67882611
C        1.10122330      -8.33466686       6.66323619
C        0.42021320      -8.92153594       7.45799242
C       -0.40156033      -9.61670315       8.46010915
H       -1.35996297      -9.08881462       8.53277313
C        0.26498114      -9.61822768       9.82540252
C        1.51077896     -10.23258261      10.04375747
C        2.11972412     -10.19960637      11.30452944
C        1.50884974      -9.53907321      12.37733515
C        0.26048387      -8.94646025      12.16069636
C       -0.35590036      -8.98061282      10.90898292
F       -0.38613310      -8.32653255      13.15980969
C        2.18685575      -9.52447472      13.67997342
H        2.88130447     -10.34018751      13.86651898
C        2.08069136      -8.51781953      14.69558436
H        1.47448757      -7.62812104      14.58921101
N       -0.69589872     -10.97338949       8.01034563
N        4.26565567      -7.22441279       3.13415698
H        2.76239568      -1.87423204       2.68190067
H        3.95452219      -3.57042609       3.95878706
H        1.46589267      -6.63831217       2.20891796
H        2.02804648     -10.73152597       9.22595762
H        3.08811484     -10.68005077      11.43075543
H       -1.32178595      -8.49472974      10.79626616
H       -1.21106422     -11.45504025       8.74449976
H        0.17511071     -11.48395666       7.89044576
H        3.57933986      -7.76482208       2.61215210
H        4.76584746      -7.89511070       3.71419532
C        2.83787094      -8.61376691      15.91667944
C        3.47200884      -8.69412284      16.93934656
Br       4.49735618      -8.82405159      18.59291281
