181
Properties=species:S:1:pos:R:3 pbc="F F F"
C        0.00000000       0.00000000       0.00000000
C        0.91113696       0.91113696      -0.91113696
C        1.01328181       0.34895704      -2.29841776
C       -0.09309598       0.30042445      -3.14663206
C        0.04792452      -0.13487066      -4.46736198
C        1.30440232      -0.48837683      -4.98216335
C        2.45085736      -0.40341426      -4.16135078
C        2.26316513      -0.03955642      -2.80653821
C        3.85835786      -0.67954136      -4.70115565
H        3.75148245      -1.62078933      -5.26564700
C        4.52695191       0.36173252      -5.73122135
H        5.44055298      -0.18187525      -6.02389898
C        5.06943979       1.72421630      -5.27636303
C        6.21664611       2.21994457      -5.94228074
C        6.80132579       3.46349557      -5.62554022
C        7.91726569       4.02585764      -6.45945617
Br       9.56952316       4.08457923      -5.44046680
C        6.27515919       4.20286808      -4.56556670
C        5.13353474       3.75472967      -3.91532702
C        4.49989288       2.57529108      -4.32950586
O        3.27377142       2.35357939      -3.77816271
C        2.26924315       3.00934227      -4.56209574
N        3.81082917       0.51640109      -7.01321330
N        4.81984025      -1.03888607      -3.62478584
O        1.50089986      -0.91217293      -6.27102566
C        0.34007926      -1.16020385      -7.06145979
H        1.88669496       0.96597166      -0.41309067
H        0.47630251       1.91350375      -0.92690426
H       -1.07376551       0.60716159      -2.79098260
H       -0.84893139      -0.16082143      -5.07538224
H        3.12427649       0.01481741      -2.14680726
H        6.63701538       1.63898520      -6.76341663
H        7.68541138       5.04094113      -6.77925071
H        8.11596134       3.41790110      -7.34774458
H        6.71827940       5.15505741      -4.27033497
H        4.69362902       4.35677839      -3.12326413
H        1.31486949       2.90706531      -4.04276159
H        2.17281636       2.54192161      -5.54507450
H        2.47401466       4.07900242      -4.67473438
H        2.90677322       0.93423224      -6.80111866
H        3.56113468      -0.41685431      -7.33749418
H        5.65521053      -1.43480961      -4.05111202
H        5.12638130      -0.17306577      -3.18398166
H       -0.31477994      -1.89897515      -6.58601830
H        0.66836330      -1.57376905      -8.01771181
H       -0.19633928      -0.22838778      -7.27011626
C       -0.91113696      -0.91113696      -0.91113696
C       -1.57115020      -1.98807282      -0.10143359
C       -2.53164897      -1.68647345       0.86416190
C       -3.20451443      -2.71133539       1.53543399
C       -2.96473000      -4.05851484       1.22505601
C       -2.03279750      -4.39391955       0.21792317
C       -1.30796937      -3.33791834      -0.38425922
C       -1.80757204      -5.84201794      -0.23038216
H       -1.70504847      -6.40408834       0.71279669
C       -2.96270240      -6.60142109      -1.05578229
H       -2.55923188      -7.62679216      -1.09655267
C       -3.25159489      -6.28763914      -2.53078509
C       -3.65952503      -7.36481984      -3.35452654
C       -3.96654296      -7.20254394      -4.72127468
C       -4.54806044      -8.33376171      -5.52075734
Br      -3.28853027      -8.93461422      -6.87142470
C       -3.79163029      -5.94716611      -5.30479757
C       -3.42148627      -4.86774805      -4.51435710
C       -3.24025279      -5.03024988      -3.13418716
O       -3.10423567      -3.87247629      -2.42880157
C       -4.39877968      -3.37742403      -2.06447745
N       -4.23540873      -6.77701759      -0.32801724
N       -0.48575698      -6.03585781      -0.88412524
O       -3.60265060      -5.10181133       1.84470933
C       -4.42078884      -4.79134086       2.97079450
H       -0.25586351      -1.32033028      -1.68956351
H       -1.65578492      -0.27075235      -1.39017324
H       -2.77104586      -0.65209501       1.09876220
H       -3.93223990      -2.41559300       2.28220348
H       -0.57050782      -3.56748140      -1.14791193
H       -3.78602169      -8.34943852      -2.90395700
H       -5.45823892      -8.01823777      -6.02912653
H       -4.78090013      -9.20305563      -4.89765125
H       -3.98928490      -5.78848811      -6.36589877
H       -3.33528977      -3.87891498      -4.95946680
H       -4.26770689      -2.40008353      -1.59690596
H       -4.88106734      -4.03846109      -1.34028405
H       -5.04500894      -3.24447754      -2.93826497
H       -4.62117572      -5.84738807      -0.17356033
H       -4.00697470      -7.08947117       0.61467133
H       -0.29364080      -7.03377978      -0.94409236
H       -0.56976878      -5.71884774      -1.84868067
H       -3.84901786      -4.26967698       3.74643164
H       -4.77587540      -5.73268251       3.39625185
H       -5.29963777      -4.21267704       2.66692561
C       -0.91113696       0.91113696       0.91113696
C       -0.49162642       0.82026299       2.34876720
C        0.73977790       1.31420403       2.77953440
C        1.06678917       1.30872624       4.13847875
C        0.15343535       0.85125669       5.10036750
C       -1.11989528       0.38995687       4.69894173
C       -1.38922451       0.33015334       3.31076908
C       -2.19057444      -0.02465010       5.71404780
H       -1.65369785      -0.67860353       6.42124579
C       -2.89326158       1.10202129       6.62462291
H       -3.48426609       0.48059422       7.31771639
C       -3.93896921       2.07307876       6.05797116
C       -4.99060572       2.46819134       6.92007437
C       -6.00352282       3.36489788       6.52194088
C       -7.00793340       3.88278601       7.51186009
Br      -8.78328584       3.21259668       7.09868667
C       -6.01383542       3.82508363       5.20467492
C       -4.97894449       3.47728245       4.34736450
C       -3.91863674       2.68246730       4.80358579
O       -2.85592110       2.59414838       3.95544405
C       -1.96073560       3.68791345       4.19203211
N       -1.98126793       1.82899639       7.53017925
N       -3.21198577      -0.93120616       5.12496041
O        0.41831811       0.83275881       6.44531189
C        1.75024428       1.13835078       6.85322870
H       -1.94114353       0.56737532       0.75723844
H       -0.83311701       1.93796839       0.54562513
H        1.45370276       1.71439818       2.06368326
H        2.04166261       1.69567718       4.41161485
H       -2.35290356      -0.03894332       2.97194091
H       -4.99165664       2.10115314       7.94660742
H       -7.04727150       4.97102725       7.48730448
H       -6.78123247       3.56567717       8.53469737
H       -6.79783187       4.49575364       4.85008627
H       -4.95987475       3.87769401       3.33610278
H       -1.17781099       3.65439470       3.43249069
H       -1.48658785       3.60058782       5.17263682
H       -2.46701215       4.65489218       4.10584713
H       -1.33910955       2.35901072       6.94400385
H       -1.37357186       1.13884946       7.96935323
H       -3.74715611      -1.35552196       5.87987879
H       -3.87777716      -0.35404403       4.61356405
H        2.47507687       0.46463376       6.38270632
H        1.81169516       0.99025588       7.93374534
H        1.99015843       2.18717760       6.64837003
C        0.91113696      -0.91113696       0.91113696
C        1.06108991      -2.28122360       0.31834310
C        1.74808992      -2.48445046      -0.87857985
C        1.96087610      -3.77936989      -1.35983016
C        1.53137166      -4.90053393      -0.63371676
C        0.87549180      -4.72793023       0.60537186
C        0.60131257      -3.40422266       1.02461170
C        0.47685846      -5.91731023       1.48580346
H       -0.01047014      -6.61863138       0.78817888
C        1.62440489      -6.77512094       2.22037994
H        1.03554810      -7.60815680       2.63887181
C        2.38306802      -6.24251531       3.44443580
C        2.76339006      -7.18424257       4.43123879
C        3.47501980      -6.82184452       5.59349725
C        3.99863199      -7.86879083       6.53515667
Br       3.07697941      -7.77550694       8.24208284
C        3.75229169      -5.47291474       5.81838754
C        3.41721761      -4.53259963       4.85377419
C        2.81910524      -4.93400031       3.65158428
O        2.74389969      -3.96873081       2.69288302
C        3.95632782      -3.95533658       1.92901677
N        2.56637685      -7.46077996       1.31328675
N       -0.61272890      -5.57860664       2.43986228
O        1.72223468      -6.19142270      -1.05390478
C        2.23255351      -6.38083236      -2.37205067
H        0.43214228      -0.93621983       1.89739519
H        1.88253048      -0.42115506       1.01302498
H        2.13052553      -1.63856091      -1.44470777
H        2.49173877      -3.87391187      -2.30002122
H        0.08062925      -3.24145348       1.96381842
H        2.53796629      -8.23763760       4.26381331
H        5.06193128      -7.72278403       6.72088791
H        3.84845270      -8.88255195       6.15060237
H        4.27392936      -5.14944425       6.72029817
H        3.67961683      -3.48795311       5.00610160
H        3.91413276      -3.10793784       1.24262578
H        4.05561612      -4.86792651       1.33626986
H        4.83759342      -3.82467445       2.56548359
H        3.08539102      -6.73687886       0.81985424
H        2.01618978      -7.89313285       0.57245191
H       -0.99286365      -6.44208860       2.82228799
H       -0.19010027      -5.09605162       3.23134584
H        1.59171842      -5.90034711      -3.11980232
H        2.23708061      -7.45352341      -2.57829796
H        3.26577684      -6.02496791      -2.44535555
