93
Properties=species:S:1:pos:R:3 pbc="F F F"
C        0.00000000       0.00000000       0.00000000
C        0.87854521       0.87854521      -0.87854521
C        0.61386648       2.23734380      -1.00969842
C        1.43535637       3.01053167      -1.82867809
C        2.48914015       2.38628120      -2.48337427
N        2.77081672       1.06991678      -2.37194251
C        1.95624071       0.34357817      -1.56894403
C        3.34521625       3.11571073      -3.36110176
C        4.03198087       3.74295318      -4.12010692
C        4.86005823       4.56118738      -5.11358893
C        5.46357486       5.22050271      -5.91733298
C        6.13585595       6.01574585      -6.89089229
C        5.78934054       7.34554479      -7.09211909
C        6.46016416       8.06188032      -8.08208771
C        7.44594090       7.42339906      -8.82642505
C        7.72653549       6.09300080      -8.55132047
N        7.09085506       5.37167560      -7.59651363
Br       8.37345192       8.34730531     -10.18208521
H       -0.22065050       2.69826898      -0.48916641
H        1.24867561       4.07172131      -1.95508732
H        2.20653964      -0.71140204      -1.50158786
H        5.01116047       7.81591890      -6.50049433
H        6.20613484       9.10201145      -8.26455387
H        8.48676592       5.54726541      -9.10313725
C       -0.87854521      -0.87854521      -0.87854521
C       -1.95033507      -0.33356439      -1.57700923
C       -2.73831259      -1.16949833      -2.36675520
C       -2.41749215      -2.51962178      -2.42168170
N       -1.38129354      -3.07491743      -1.75646504
C       -0.63265358      -2.23856119      -0.99754815
C       -3.20474343      -3.43216849      -3.18511682
C       -3.90102497      -4.18635894      -3.80765706
C       -4.83418625      -5.12667785      -4.57397044
C       -5.60951723      -5.84349914      -5.14839417
C       -6.56601727      -6.67326899      -5.80320782
C       -7.69324309      -6.12891405      -6.40484730
C       -8.60931644      -6.99480815      -7.00000760
C       -8.36225062      -8.36285398      -6.97066042
C       -7.20676773      -8.81427664      -6.34981238
N       -6.29941239      -7.99691310      -5.76271880
Br      -9.57618061      -9.57361166      -7.75305017
H       -2.18098484       0.72584708      -1.51164713
H       -3.58485677      -0.77318781      -2.91743966
H        0.19116996      -2.71461527      -0.47328014
H       -7.86338867      -5.05752100      -6.40666403
H       -9.50224489      -6.59701588      -7.47343940
H       -6.96610850      -9.87245442      -6.29860567
C       -0.87854521       0.87854521       0.87854521
C       -2.24210831       0.62950688       0.98929351
C       -3.01778985       1.45918272       1.79759355
C       -2.39147191       2.50617963       2.46114408
N       -1.06942843       2.76921361       2.37403397
C       -0.34052291       1.94621123       1.58202878
C       -3.13546925       3.41007731       3.27648218
C       -3.78720951       4.17726059       3.93057087
C       -4.65313828       5.16190437       4.71979190
C       -5.36569268       5.94018829       5.29552957
C       -6.23845356       6.86693593       5.93710460
C       -7.61271141       6.66636528       5.94792774
C       -8.41678917       7.62521930       6.56212372
C       -7.81750434       8.73966566       7.13859502
C       -6.43604642       8.85264735       7.08216299
N       -5.62964937       7.93770253       6.49169240
Br      -8.86341516      10.06767968       7.97174760
H       -2.70630452      -0.19427231       0.45475268
H       -4.08515507       1.29277448       1.89755469
H        0.71811888       2.18449035       1.53035398
H       -8.05322936       5.79017673       5.48416762
H       -9.49511832       7.49658216       6.58099969
H       -5.91776322       9.70299476       7.51641061
C        0.87854521      -0.87854521       0.87854521
C        0.38095700      -2.05767860       1.42227310
C        1.21186631      -2.83427541       2.22842441
C        2.50908582      -2.39362837       2.45608143
N        3.01908813      -1.25484105       1.93874682
C        2.18918352      -0.52081391       1.15876549
C        3.39744535      -3.12609604       3.29848735
C        4.11605889      -3.74179644       4.03718564
C        4.99063578      -4.52605306       5.01814571
C        5.63629097      -5.14019391       5.82492567
C        6.36382652      -5.86513484       6.81353273
C        5.81417678      -6.98036802       7.43245963
C        6.56124059      -7.62729260       8.41559901
C        7.82157366      -7.13625904       8.73793231
C        8.28951410      -6.01818865       8.06315401
N        7.58598522      -5.36866707       7.10439201
Br       8.86487732      -7.97090826      10.06705687
H       -0.63990990      -2.37563122       1.23106357
H        0.84853645      -3.75552028       2.67142751
H        2.62690191       0.38983936       0.75966290
H        4.82520613      -7.33719907       7.16516851
H        6.15404653      -8.49892613       8.91972751
H        9.26665957      -5.59399252       8.27651649
