114
Properties=species:S:1:pos:R:3 pbc="F F F"
C        1.78844924       1.78844924      -1.78844924
C        1.52377051       3.14724782      -1.91960244
C        2.34526039       3.92043569      -2.73858211
C        3.39904417       3.29618523      -3.39327830
N        3.68072074       1.97982080      -3.28184653
C        2.86614473       1.25348220      -2.47884806
C        4.25512027       4.02561475      -4.27100579
C        4.94188489       4.65285721      -5.03001095
C        5.76996226       5.47109140      -6.02349295
C        6.37347888       6.13040673      -6.82723700
C        7.04575997       6.92564987      -7.80079632
C        6.69924457       8.25544882      -8.00202312
C        7.37006818       8.97178434      -8.99199174
C        8.35584492       8.33330309      -9.73632908
C        8.63643951       7.00290482      -9.46122450
N        8.00075909       6.28157963      -8.50641766
Br       9.28335594       9.25720934     -11.09198924
H        0.68925353       3.60817300      -1.39907043
H        2.15857964       4.98162533      -2.86499135
H        3.11644366       0.19850199      -2.41149188
H        5.92106449       8.72582293      -7.41039836
H        7.11603887      10.01191547      -9.17445790
H        9.39666995       6.45716943     -10.01304128
C       -1.78844924      -1.78844924      -1.78844924
C       -2.24368831      -1.32792770      -3.01900476
C       -3.05268123      -2.15717818      -3.79441879
C       -3.37202718      -3.41548260      -3.30099792
N       -2.94171656      -3.88920769      -2.11146383
C       -2.15670181      -3.06191387      -1.37985931
C       -4.22252011      -4.29779870      -4.03142201
C       -4.96641815      -5.00984793      -4.64848696
C       -5.95169711      -5.87413157      -5.43871794
C       -6.75964228      -6.50986309      -6.06161724
C       -7.74766237      -7.22392780      -6.80061599
C       -8.27835427      -6.70420923      -7.97415300
C       -9.26595653      -7.43382879      -8.63405894
C       -9.68030556      -8.64780216      -8.09736936
C       -9.08966352      -9.08873587      -6.92216945
N       -8.12884709      -8.40114670      -6.25876258
Br     -11.01929707      -9.66528120      -8.94797624
H       -1.98182769      -0.33674988      -3.37791940
H       -3.42786745      -1.82180901      -4.75551986
H       -1.82875782      -3.46979490      -0.42788481
H       -7.94035310      -5.75081714      -8.36611553
H       -9.70227229      -7.04892498      -9.55121497
H       -9.37668815     -10.02946361      -6.46072891
C       -1.78844924       1.78844924       1.78844924
C       -1.89151949       3.15369508       1.54540621
C       -2.70007683       3.92927569       2.37492567
C       -3.37159470       3.30116332       3.41574967
N       -3.29203150       1.97748255       3.67287402
C       -2.49957807       1.24872303       2.85017390
C       -4.18769534       4.04474107       4.31930440
C       -4.84233566       4.69594349       5.08647389
C       -5.63212577       5.56094104       6.07147981
C       -6.20818067       6.27252898       6.85041297
C       -6.85001895       7.14392826       7.77825895
C       -6.85334707       8.51916056       7.58420887
C       -7.46828704       9.32159474       8.54396248
C       -8.05292142       8.71977791       9.65277775
C       -8.00360111       7.33754435       9.75942338
N       -7.41260687       6.53269547       8.84345404
Br      -8.88742700       9.76333024      10.98179729
H       -1.35084622       3.61924426       0.72640649
H       -2.79416383       4.99788583       2.21314665
H       -2.45407828       0.18872505       3.08363420
H       -6.38331505       8.96161955       6.71235118
H       -7.48141907      10.40060141       8.42039176
H       -8.44436767       6.81730374      10.60520925
C        1.78844924      -1.78844924       1.78844924
C        2.91727610      -1.26453224       2.40881243
C        3.70310740      -2.10027458       3.20089621
C        3.32284619      -3.42909805       3.33656345
N        2.23067285      -3.96349659       2.74821865
C        1.48561460      -3.12781865       1.98504174
C        4.10310143      -4.34246801       4.10617137
C        4.79308607      -5.09995948       4.73170750
C        5.71776648      -6.04802956       5.49875058
C        6.48601046      -6.77433726       6.07077489
C        7.43367813      -7.61844066       6.72008737
C        8.61305728      -7.10236281       7.24129641
C        9.51579560      -7.98331112       7.83473754
C        9.20417127      -9.33754107       7.88376474
C        7.99998783      -9.76041277       7.34016823
N        7.10408227      -8.92793463       6.75673947
Br      10.39717563     -10.56839602       8.66698287
H        3.19352861      -0.22184088       2.28112748
H        4.59306409      -1.72056952       3.69156270
H        0.61590437      -3.58696529       1.52356787
H        8.83278180      -6.04163512       7.18286886
H       10.44832738      -7.60798920       8.24609566
H        7.70811371     -10.80681123       7.35195572
C       -0.00445707       0.01189536      -1.78238275
H       -0.66409135       0.67374010      -2.43557963
H        0.65740317      -0.63156657      -2.45157240
C       -0.90989263      -0.90692880      -0.91072765
C        0.90977584       0.90977584      -0.90977584
C       -0.00465871       1.77757030       0.00794375
H       -0.66225468       2.44313916      -0.64384735
H        0.64322798       2.43503045       0.67728295
C       -1.78241447       0.00034974      -0.00472694
H       -2.45427497      -0.65498947       0.64260836
H       -2.43311707       0.67328779      -0.65473579
C       -0.91132561       0.90220522       0.91563759
C       -0.01476271      -0.02253852       1.78660255
H       -0.67934791      -0.69751639       2.42135241
H        0.63392994       0.61504881       2.47327442
C        0.01484550      -1.77751727      -0.01636693
H        0.67870853      -2.42144646      -0.68295456
H       -0.62264859      -2.45592969       0.64226336
C        1.78714474       0.01002794       0.00389507
H        2.44202412       0.67113390       0.66197326
H        2.45385902      -0.65136977      -0.64189061
C        0.91606151      -0.90478549       0.90901405
