122
Properties=species:S:1:pos:R:3 pbc="F F F"
C        1.78844924       1.78844924      -1.78844924
C        1.52377051       3.14724782      -1.91960244
C        2.34526039       3.92043569      -2.73858211
C        3.39904417       3.29618523      -3.39327830
N        3.68072074       1.97982080      -3.28184653
C        2.86614473       1.25348220      -2.47884806
C        4.25512027       4.02561475      -4.27100579
C        4.94188489       4.65285721      -5.03001095
C        5.76996226       5.47109140      -6.02349295
C        6.37347888       6.13040673      -6.82723700
C        7.04575997       6.92564987      -7.80079632
C        6.69924457       8.25544882      -8.00202312
C        7.37006818       8.97178434      -8.99199174
C        8.35584492       8.33330309      -9.73632908
C        8.63643951       7.00290482      -9.46122450
N        8.00075909       6.28157963      -8.50641766
H        0.68925353       3.60817300      -1.39907043
H        2.15857964       4.98162533      -2.86499135
H        3.11644366       0.19850199      -2.41149188
H        5.92106449       8.72582293      -7.41039836
H        7.11603887      10.01191547      -9.17445790
H        9.39666995       6.45716943     -10.01304128
C        9.06454716       9.03925095     -10.77217595
C        9.65808528       9.63048229     -11.63969771
Br      10.61778623      10.58645336     -13.04240702
C       -1.78844924      -1.78844924      -1.78844924
C       -2.24493263      -1.32735790      -3.01833024
C       -3.05388593      -2.15663307      -3.79375920
C       -3.37194293      -3.41553482      -3.30102995
N       -2.94040846      -3.88981788      -2.11216174
C       -2.15546413      -3.06248480      -1.38052607
C       -4.22232407      -4.29793922      -4.03147752
C       -4.96615217      -5.01008177      -4.64851910
C       -5.95137656      -5.87450894      -5.43866112
C       -6.75931219      -6.51037667      -6.06143376
C       -7.74735048      -7.22462470      -6.80023098
C       -8.27928824      -6.70443384      -7.97299442
C       -9.26683904      -7.43429459      -8.63271064
C       -9.67989982      -8.64896708      -8.09661018
C       -9.08806869      -9.09033021      -6.92216994
N       -8.12727020      -8.40252213      -6.25896404
H       -1.98406543      -0.33572385      -3.37670768
H       -3.43002611      -1.82083330      -4.75433690
H       -1.82651953      -3.47082445      -0.42909355
H       -7.94227706      -5.75050515      -8.36450356
H       -9.70411281      -7.04903753      -9.54926189
H       -9.37406152     -10.03160814      -6.46121100
C      -10.70291635      -9.42668764      -8.74637008
C      -11.55969269     -10.07802861      -9.29054399
Br     -12.94502757     -11.13119187     -10.17042718
C       -1.78844924       1.78844924       1.78844924
C       -1.90241356       3.15128951       1.53691770
C       -2.71060596       3.92701383       2.36665840
C       -3.37081942       3.30146607       3.41622221
N       -3.28054815       1.98012610       3.68171383
C       -2.48873058       1.25115848       2.85858593
C       -4.18583884       4.04564038       4.32026159
C       -4.83969764       4.69760630       5.08744910
C       -5.62868259       5.56392467       6.07193936
C       -6.20428992       6.27688265       6.84995004
C       -6.84575837       7.15021158       7.77623621
C       -6.85972276       8.52404225       7.57295149
C       -7.47361131       9.32880692       8.53142604
C       -8.04666551       8.73060012       9.64821146
C       -7.98725245       7.34948548       9.76383090
N       -7.39699714       6.54244190       8.84931733
H       -1.37044136       3.61490466       0.71115094
H       -2.81302767       4.99384375       2.19832490
H       -2.43446932       0.19309921       3.09886899
H       -6.39858810       8.96373373       6.69496395
H       -7.49489483      10.40683754       8.40067987
H       -8.41877103       6.83203627      10.61607336
C       -8.68284080       9.53052429      10.66260897
C       -9.21563762      10.20046077      11.51216689
Br     -10.07712500      11.28369142      12.88583019
C        1.78844924      -1.78844924       1.78844924
C        2.92668982      -1.26884442       2.39508653
C        3.71216105      -2.10453170       3.18758544
C        3.32208305      -3.42897748       3.33744717
N        2.22067350      -3.95910391       2.76261067
C        1.47621267      -3.12358181       1.99868051
C        4.10115046      -4.34242621       4.10816414
C        4.79004108      -5.10044520       4.73426677
C        5.71321585      -6.04981534       5.50151543
C        6.48017238      -6.77774617       6.07320407
C        7.42621109      -7.62432030       6.72167477
C        8.61411018      -7.11379374       7.22881258
C        9.51445320      -7.99729751       7.82209355
C        9.19207620      -9.34843491       7.88496597
C        7.97995775      -9.76574007       7.35487102
N        7.08613015      -8.93067735       6.77194887
H        3.21047005      -0.22957918       2.25644774
H        4.60927722      -1.72821100       3.66770810
H        0.59892866      -3.57926615       1.54824272
H        8.84209189      -6.05545087       7.15974302
H       10.45344501      -7.62636900       8.22259822
H        7.67956140     -10.80953909       7.37778018
C       10.10079352     -10.29150281       8.48367773
C       10.86184427     -11.08132218       8.98509883
Br      12.09239898     -12.35839329       9.79585434
C       -0.00445707       0.01189536      -1.78238275
H       -0.66409135       0.67374010      -2.43557963
H        0.65740317      -0.63156657      -2.45157240
C       -0.90989263      -0.90692880      -0.91072765
C        0.90977584       0.90977584      -0.90977584
C       -0.00465871       1.77757030       0.00794375
H       -0.66225468       2.44313916      -0.64384735
H        0.64322798       2.43503045       0.67728295
C       -1.78241447       0.00034974      -0.00472694
H       -2.45427497      -0.65498947       0.64260836
H       -2.43311707       0.67328779      -0.65473579
C       -0.91132561       0.90220522       0.91563759
C       -0.01476271      -0.02253852       1.78660255
H       -0.67934791      -0.69751639       2.42135241
H        0.63392994       0.61504881       2.47327442
C        0.01484550      -1.77751727      -0.01636693
H        0.67870853      -2.42144646      -0.68295456
H       -0.62264859      -2.45592969       0.64226336
C        1.78714474       0.01002794       0.00389507
H        2.44202412       0.67113390       0.66197326
H        2.45385902      -0.65136977      -0.64189061
C        0.91606151      -0.90478549       0.90901405
