101
Properties=species:S:1:pos:R:3 pbc="F F F"
C        0.00000000       0.00000000       0.00000000
C        0.88509029       0.88509029      -0.88509029
C        0.58258363       2.23554539      -0.99717666
C        1.38812954       3.03146608      -1.81172058
C        2.46210064       2.45385385      -2.48368703
C        2.68635419       1.09634237      -2.30554524
N        1.92267219       0.29781895      -1.52087198
C        3.29277540       3.23308472      -3.34517195
C        3.96978583       3.88549981      -4.09155571
C        4.80403197       4.71338560      -5.07326869
C        5.43025380       5.35711452      -5.86969720
C        6.14988181       6.11732286      -6.84161463
C        5.84024122       7.45420541      -7.07609303
C        6.54834147       8.15987068      -8.04911126
C        7.54493735       7.49735531      -8.75353798
N        7.86955900       6.20256585      -8.54478406
C        7.16465949       5.54260305      -7.59471057
H       -0.26093038       2.66806058      -0.47010965
H        1.16900787       4.09074733      -1.91919119
H        3.50785896       0.58768517      -2.80525926
H        5.05263737       7.95018174      -6.51454963
H        6.31726011       9.20083855      -8.24770223
H        7.45010267       4.50247992      -7.45845149
C        8.27410953       8.21769936      -9.76497872
C        8.88479124       8.82098750     -10.61206034
Br       9.87221192       9.79645340     -11.98171967
C       -0.88509029      -0.88509029      -0.88509029
C       -1.30686844      -0.39474368      -2.11369357
C       -2.11923346      -1.20361572      -2.90846703
C       -2.48136350      -2.46766491      -2.45061312
C       -2.00705530      -2.87056063      -1.21062588
N       -1.21625751      -2.10844126      -0.41666435
C       -3.33177156      -3.31273641      -3.22652410
C       -4.07106123      -4.00731863      -3.86846149
C       -5.04667709      -4.87144557      -4.67256361
C       -5.84092884      -5.52811308      -5.28802360
C       -6.81248161      -6.29048893      -6.00584877
C       -7.35112977      -5.81939251      -7.20001738
C       -8.31495354      -6.57970949      -7.86266038
C       -8.70445675      -7.78909316      -7.30228073
N       -8.19648290      -8.27286100      -6.14756501
C       -7.26326788      -7.51269181      -5.52601343
H       -1.01899136       0.59448133      -2.45272982
H       -2.46602446      -0.84038136      -3.87254058
H       -2.25716633      -3.84553856      -0.79809850
H       -7.03322788      -4.86716860      -7.61697225
H       -8.74822981      -6.22571266      -8.79185842
H       -6.88159274      -7.93131676      -4.59812457
C       -9.70488147      -8.57491620      -7.97698994
C      -10.54273717      -9.23304299      -8.54205891
Br     -11.89747898     -10.29717836      -9.45572765
C       -0.88509029       0.88509029       0.88509029
C       -1.65723346       1.87161658       0.28645565
C       -2.45277093       2.67801666       1.10052861
C       -2.44896470       2.47299835       2.47767847
C       -1.64671611       1.45959430       2.98193139
N       -0.86440932       0.65976610       2.21718770
C       -3.23182713       3.29557850       3.34362643
C       -3.86801950       4.00874870       4.07007315
C       -4.64913975       4.94723327       4.99431324
C       -5.23224657       5.70857920       5.71623975
C       -5.89868500       6.63721640       6.57291790
C       -6.61640746       7.70765757       6.04647462
C       -7.23565590       8.60837731       6.91329021
C       -7.11286115       8.40195864       8.28101084
N       -6.42645027       7.37053006       8.81992858
C       -5.83504900       6.51280980       7.95411432
H       -1.64449652       2.02055081      -0.78780748
H       -3.06283090       3.46019031       0.65592518
H       -1.59954405       1.25246813       4.04879121
H       -6.69481877       7.85078857       4.97176140
H       -7.79522333       9.45031725       6.52026031
H       -5.28801893       5.69916929       8.42384586
C       -7.74279564       9.33264992       9.18134205
C       -8.27036579      10.11210386       9.93536943
Br      -9.12340208      11.37241496      11.15456794
C        0.88509029      -0.88509029       0.88509029
C        2.00282824      -0.32418632       1.48829112
C        2.80730778      -1.13923555       2.28477288
C        2.46994658      -2.47996919       2.44972575
C        1.33155600      -2.94752345       1.80916235
N        0.53020373      -2.18070045       1.03045894
C        3.28401331      -3.34932391       3.23769485
C        3.98757581      -4.08312583       3.87613970
C        4.91044980      -5.02284205       4.65739441
C        5.65638198      -5.76254518       5.23813836
C        6.56370531      -6.64552220       5.89959180
C        7.75155746      -6.17040583       6.44857637
C        8.62517569      -7.06499250       7.06715523
C        8.27449469      -8.40783342       7.11350253
N        7.12740767      -8.89645635       6.59304489
C        6.29924216      -8.00479310       5.99793786
H        2.25341859       0.72132777       1.34514903
H        3.69035821      -0.72443614       2.76415204
H        1.01764227      -3.98526147       1.89789965
H        8.00629552      -5.11494326       6.39612996
H        9.55688060      -6.71259111       7.49632917
H        5.38942056      -8.43491649       5.58669703
C        9.17565619      -9.33777612       7.74335530
C        9.93037895     -10.11660313       8.27085700
Br      11.15070182     -11.37590054       9.12378263
