114
Properties=species:S:1:pos:R:3 pbc="F F F"
C        1.79499432       1.79499432      -1.79499432
C        1.49248765       3.14544942      -1.90708069
C        2.29803356       3.94137011      -2.72162461
C        3.37200466       3.36375788      -3.39359106
C        3.59625822       2.00624639      -3.21544927
N        2.83257622       1.20772297      -2.43077601
C        4.20267942       4.14298874      -4.25507598
C        4.87968985       4.79540383      -5.00145974
C        5.71393599       5.62328963      -5.98317272
C        6.34015783       6.26701854      -6.77960122
C        7.05978584       7.02722689      -7.75151865
C        6.75014525       8.36410943      -7.98599705
C        7.45824550       9.06977471      -8.95901529
C        8.45484137       8.40725933      -9.66344200
N        8.77946302       7.11246988      -9.45468809
C        8.07456352       6.45250708      -8.50461460
Br       9.41485945       9.35565441     -10.99509098
H        0.64897365       3.57796460      -1.38001367
H        2.07891189       5.00065136      -2.82909522
H        4.41776298       1.49758920      -3.71516328
H        5.96254139       8.86008576      -7.42445365
H        7.22716413      10.11074257      -9.15760625
H        8.36000670       5.41238394      -8.36835551
C       -1.79499432      -1.79499432      -1.79499432
C       -2.21597429      -1.30502262      -3.02402085
C       -3.02834585      -2.11388649      -3.81879593
C       -3.39127543      -3.37755466      -3.36052351
C       -2.91773009      -3.78009457      -2.12012921
N       -2.12694709      -3.01797373      -1.32615437
C       -4.24171560      -4.22259156      -4.13643699
C       -4.98102970      -4.91712857      -4.77839515
C       -5.95667340      -5.78117588      -5.58254906
C       -6.75094425      -6.43776038      -6.19807296
C       -7.72251766      -7.20001843      -6.91599529
C       -8.26039254      -6.72922668      -8.11063251
C       -9.22426162      -7.48940383      -8.77337005
C       -9.61458657      -8.69834615      -8.21260999
N       -9.10737355      -9.18181341      -7.05743402
C       -8.17409422      -8.42178893      -6.43580204
Br     -10.93179985      -9.73275086      -9.10105412
H       -1.92748045      -0.31608893      -3.36338255
H       -3.37452053      -1.75093898      -4.78319896
H       -3.16848540      -4.75476459      -1.70726548
H       -7.94185491      -5.77734421      -8.52788169
H       -9.65694202      -7.13563749      -9.70293345
H       -7.79304434      -8.84016003      -5.50754178
C       -1.79499432       1.79499432       1.79499432
C       -1.87279814       3.15346445       1.51875517
C       -2.67363906       3.95258882       2.33480040
C       -3.36494516       3.37045510       3.39395334
C       -3.22650415       2.00366183       3.58778789
N       -2.45747969       1.20147982       2.81211568
C       -4.17424445       4.16188663       4.26461307
C       -4.82911075       4.83569790       5.01174477
C       -5.62936432       5.70600771       5.98502630
C       -6.22342893       6.39704799       6.76630067
C       -6.89955871       7.22640956       7.71256312
C       -6.94012890       8.60862657       7.55149626
C       -7.58972371       9.38990613       8.50740566
C       -8.17754160       8.75465314       9.59334797
N       -8.15732984       7.41578375       9.77350739
C       -7.51873219       6.68299994       8.82995307
Br      -9.05314986       9.80966755      10.90278742
H       -1.32365723       3.59114037       0.69215432
H       -2.74735259       5.01976225       2.14154363
H       -3.73938424       1.49192650       4.39920473
H       -6.46877343       9.08351755       6.69478983
H       -7.62717321      10.46854782       8.39979193
H       -7.51866285       5.61103653       9.01104677
C        1.79499432      -1.79499432       1.79499432
C        2.89924698      -1.22838020       2.41739058
C        3.70393949      -2.04333585       3.21375294
C        3.38019654      -3.38963883       3.35951822
C        2.25464372      -3.86272019       2.70058996
N        1.45343137      -3.09615371       1.92149012
C        4.19519791      -4.25868548       4.14686075
C        4.89985096      -4.99173287       4.78496958
C        5.82453281      -5.92981454       5.56605099
C        6.57227547      -6.66761450       6.14688761
C        7.48211984      -7.54776078       6.80865077
C        8.65808408      -7.06549914       7.37666851
C        9.53485013      -7.95714343       7.99504193
C        9.19916491      -9.30433811       8.02203969
N        8.06379106      -9.79996883       7.48286109
C        7.23223800      -8.91100020       6.88844699
Br      10.39012877     -10.52456574       8.85091032
H        3.13938471      -0.17849812       2.28906909
H        4.57663042      -1.62405413       3.70797391
H        1.95172125      -4.90492169       2.77387253
H        8.90122084      -6.00666801       7.33919196
H       10.45748045      -7.59911844       8.43891407
H        6.33217961      -9.34669432       6.46187222
C       -0.00445707       0.01189536      -1.78238275
H       -0.66409135       0.67374010      -2.43557963
H        0.65740317      -0.63156657      -2.45157240
C       -0.90989263      -0.90692880      -0.91072765
C        0.90977584       0.90977584      -0.90977584
C       -0.00465871       1.77757030       0.00794375
H       -0.66225468       2.44313916      -0.64384735
H        0.64322798       2.43503045       0.67728295
C       -1.78241447       0.00034974      -0.00472694
H       -2.45427497      -0.65498947       0.64260836
H       -2.43311707       0.67328779      -0.65473579
C       -0.91132561       0.90220522       0.91563759
C       -0.01476271      -0.02253852       1.78660255
H       -0.67934791      -0.69751639       2.42135241
H        0.63392994       0.61504881       2.47327442
C        0.01484550      -1.77751727      -0.01636693
H        0.67870853      -2.42144646      -0.68295456
H       -0.62264859      -2.45592969       0.64226336
C        1.78714474       0.01002794       0.00389507
H        2.44202412       0.67113390       0.66197326
H        2.45385902      -0.65136977      -0.64189061
C        0.91606151      -0.90478549       0.90901405
