173
Properties=species:S:1:pos:R:3 pbc="F F F"
C        0.00000000       0.00000000       0.00000000
C        0.92455227       0.92455227      -0.92455227
C        0.44259553       2.37640786      -0.88343859
H        0.30439693       2.70480300       0.15341884
S        1.66695237       3.50212255      -1.66346546
C        2.99583458       3.34221311      -0.53759967
N        3.91097026       2.42208841      -0.72360223
C        4.85142402       2.49010884       0.29071737
C        4.62162917       3.47526354       1.25447116
S        3.18561904       4.33478747       0.84002198
C        5.48380106       3.65668028       2.34911126
C        6.59941356       2.81978635       2.45895451
C        6.84983347       1.83513493       1.50840101
C        5.98459919       1.66213858       0.42324598
C       -0.84833012       2.51300594      -1.59687199
C       -1.89458341       2.57234470      -2.17833093
C       -3.22796209       2.60348881      -2.93953646
C       -4.25653805       2.61115402      -3.55645186
C       -5.51247544       2.63166786      -4.34199808
H       -6.36240509       2.67802872      -3.65108550
S       -5.62493899       1.07777239      -5.31160137
C       -7.27768099       1.19430475      -5.87069472
N       -8.27963631       1.19493952      -5.02642048
C       -9.47153577       1.26566204      -5.73042321
C       -9.33962701       1.39583408      -7.11486980
S       -7.67056941       1.34222183      -7.52623433
C      -10.45131399       1.53086684      -7.95985060
C      -11.72416815       1.49803574      -7.38503326
C      -11.88402392       1.33483807      -6.01249046
C      -10.76711271       1.22469469      -5.17675370
C       -5.52431865       3.82169862      -5.30274323
Br      -5.75941975       5.49881028      -4.32757724
H        0.88577608       0.48503950      -1.92626799
H        1.92172154       0.78503219      -0.50286985
H        5.29312790       4.42567596       3.09187636
H        7.28113223       2.94253082       3.29873151
H        7.72318774       1.19415193       1.60672433
H        6.17750314       0.89499622      -0.32048001
H      -10.32462270       1.64902064      -9.03095915
H      -12.59960319       1.59467791      -8.02273605
H      -12.88254004       1.29665479      -5.58323410
H      -10.88652973       1.10264365      -4.10467039
H       -4.59388744       3.92386873      -5.87166926
H       -6.36896850       3.80794764      -5.99598903
C       -0.92455227      -0.92455227      -0.92455227
C       -0.17093614      -1.34226563      -2.18924021
H        0.81734042      -1.74117215      -1.93194935
S       -1.07985616      -2.65505874      -3.09762549
C       -0.96661931      -3.96490196      -1.94412608
N       -1.89699091      -4.12517139      -1.03449861
C       -1.58934247      -5.21887039      -0.24260263
C       -0.39973633      -5.87621786      -0.56646736
S        0.32275877      -5.08555503      -1.91758827
C        0.04882154      -6.99537302       0.15518140
C       -0.73192821      -7.45110598       1.22278879
C       -1.92216246      -6.81433265       1.55992771
C       -2.35898787      -5.70033598       0.83583206
C        0.00993808      -0.18084531      -3.09064058
C        0.13764057       0.78910892      -3.78284170
C        0.27047592       2.05559605      -4.64113515
C        0.34453909       3.05083284      -5.30643977
C        0.41333923       4.27033671      -6.14486645
H        1.42454521       4.68885694      -6.08011128
S       -0.77786321       5.50259812      -5.48916968
C       -0.28830643       6.90810037      -6.40711242
N        0.90981712       7.42105054      -6.27259136
C        1.02381769       8.53759659      -7.08596376
C       -0.08638510       8.80546822      -7.89016000
S       -1.32222823       7.66241350      -7.53807201
C       -0.10509488       9.86970399      -8.80401257
C        1.01772745      10.69792198      -8.87455027
C        2.12315221      10.47341845      -8.05987527
C        2.13976185       9.39466212      -7.16875965
C        0.04868566       3.94548679      -7.59429565
Br       1.47039433       2.91649732      -8.45385942
H       -1.82559913      -0.33892644      -1.13255800
H       -1.17611127      -1.76219007      -0.27132224
H        0.97604998      -7.49663442      -0.10634305
H       -0.40394972      -8.31668644       1.79570462
H       -2.51922876      -7.18265394       2.39126736
H       -3.28757600      -5.20150672       1.09610335
H       -0.97172440      10.04833569      -9.43196839
H        1.02153417      11.53238126      -9.57172620
H        2.98309897      11.13671556      -8.11716339
H        3.00199901       9.21213769      -6.53492102
H       -0.86329540       3.34539883      -7.68375398
H       -0.04257448       4.83297344      -8.22536713
C       -0.92455227       0.92455227       0.92455227
C       -0.11318649       1.50352621       2.08572928
H        0.81543456       1.95457931       1.71663634
S       -1.05594020       2.81364970       2.96295048
C       -1.14205256       4.02720422       1.70639057
N       -2.14998478       4.03852433       0.86815180
C       -1.99695856       5.08259817      -0.02874123
C       -0.84509167       5.85457530       0.14275458
S        0.04313147       5.23785687       1.48565913
C       -0.54878067       6.94069171      -0.69810230
C       -1.44497674       7.24388330      -1.72861464
C       -2.60021351       6.49118745      -1.91483357
C       -2.88511109       5.41130615      -1.07292545
C        0.23325185       0.43903363       3.05576604
C        0.49469963      -0.45684450       3.80763635
C        0.79887572      -1.63303506       4.74697397
C        1.00707258      -2.56042133       5.47856174
C        1.24216535      -3.69653796       6.39989382
H        2.27681994      -4.03971981       6.28324888
S        0.11120808      -5.06758040       5.94322325
C        0.78602194      -6.34936290       6.92270332
N        2.00889637      -6.77777359       6.72839365
C        2.27834775      -7.81020968       7.61310691
C        1.25983468      -8.09472869       8.52564025
S       -0.09078804      -7.08393458       8.19103328
C        1.40081560      -9.07702869       9.51724775
C        2.59108169      -9.80731186       9.55729439
C        3.60766777      -9.56712459       8.63809696
C        3.46514005      -8.56865805       7.66813378
C        0.96455612      -3.28066517       7.84534449
Br       2.35726219      -2.07672728       8.50095724
H       -1.75469099       0.29060133       1.25179125
H       -1.29497309       1.68267646       0.23197403
H        0.35066274       7.53213303      -0.55454280
H       -1.23576665       8.08121238      -2.39204748
H       -3.28837296       6.74147938      -2.71923700
H       -3.78601214       4.82228110      -1.21531386
H        0.60322521      -9.26883702      10.22741931
H        2.71848586     -10.57772065      10.31401728
H        4.52194520     -10.15495389       8.67424795
H        4.25758694      -8.37381349       6.95218474
H        0.01519600      -2.74737137       7.96421793
H        0.99684676      -4.11662418       8.54843911
C        0.92455227      -0.92455227       0.92455227
C        0.51119514      -2.39259274       0.79865410
H        0.43316000      -2.67929897      -0.25667789
S        1.75035802      -3.49834452       1.58383784
C        3.11821987      -3.23000958       0.52741791
N        3.98173677      -2.28042705       0.79449709
C        4.96743622      -2.26148807      -0.17810880
C        4.82460785      -3.21094952      -1.19313581
S        3.41243898      -4.14989350      -0.88194794
C        5.74080957      -3.30493629      -2.25437577
C        6.82102149      -2.41629961      -2.27707569
C        6.98502988      -1.46584661      -1.27430909
C        6.06656540      -1.37996621      -0.22303982
C       -0.80194567      -2.61730482       1.44618866
C       -1.86867483      -2.74830562       1.97646142
C       -3.23104195      -2.87178116       2.67432397
C       -4.28401146      -2.95205177       3.24302752
C       -5.57062852      -3.06266180       3.96915723
H       -6.38679736      -3.11446871       3.23903778
S       -5.79543878      -1.56069857       4.99917497
C       -7.46389520      -1.77408322       5.47713046
N       -8.42720934      -1.77989375       4.58903928
C       -9.64409857      -1.93413528       5.23451277
C       -9.56662062      -2.12113339       6.61656411
S       -7.92113795      -2.01386256       7.10516213
C      -10.70665563      -2.34247322       7.40358586
C      -11.95354517      -2.33886334       6.77358268
C      -12.06092979      -2.12065750       5.40357689
C      -10.91495286      -1.92435062       4.62493792
C       -5.57015155      -4.29444434       4.87583042
Br      -5.68638917      -5.93421040       3.81914654
H        0.82244565      -0.53303291       1.94160501
H        1.93172346      -0.72290665       0.55499347
H        5.61762996      -4.04699283      -3.03769530
H        7.54340480      -2.47112246      -3.08959571
H        7.83184923      -0.78376948      -1.30500337
H        6.19201377      -0.63970612       0.56125948
H      -10.62133324      -2.50348830       8.47320203
H      -12.85054134      -2.50223313       7.36611897
H      -13.04058162      -2.10640502       4.93152546
H      -10.99314983      -1.75908611       3.55484803
H       -4.66160825      -4.38184813       5.48141068
H       -6.44384154      -4.34882260       5.52998711
