93
Properties=species:S:1:pos:R:3 pbc="F F F"
C        0.00000000       0.00000000       0.00000000
F       -0.94060030       2.31758823      -1.39325880
C        0.35433871       1.99476341      -1.52781063
C        1.16040306       2.79923750      -2.33220650
C        2.52162342       2.50162706      -2.50732321
C        3.04039147       1.37260067      -1.84708217
C        2.22907568       0.56656556      -1.03921510
C        0.88157047       0.88157047      -0.88157047
C        3.37967772       3.34592820      -3.35550601
C        4.16862040       2.78430412      -4.37631016
C        4.98567488       3.58247199      -5.18550381
C        5.02463272       4.95967653      -4.98255191
C        4.25028102       5.52981539      -3.97741073
F        4.27206002       6.85324665      -3.76095243
C        3.43513461       4.73705725      -3.17071722
H        0.70562877       3.65311382      -2.82761212
H        4.09443980       1.11624968      -1.94695139
H        2.65986887      -0.29710678      -0.53921543
H        4.14270240       1.71067542      -4.55968507
H        5.58089415       3.11918882      -5.96846412
H        2.85476542       5.22166101      -2.38976301
C        5.86656816       5.77744089      -5.81682175
C        6.57168910       6.46231854      -6.51552273
Br       7.71181001       7.56970778      -7.64526314
F       -0.44315129       0.46326582      -2.79036125
C       -1.04957881      -0.59503457      -2.23229937
C       -1.85448078      -1.40098995      -3.03637632
C       -2.51315241      -2.51868843      -2.49873286
C       -2.33331290      -2.79574143      -1.13101998
C       -1.52393268      -1.98527748      -0.32564617
C       -0.88157047      -0.88157047      -0.88157047
C       -3.36534732      -3.37473255      -3.34103207
C       -4.68399282      -3.68485544      -2.96038643
C       -5.49824026      -4.49781517      -3.75759524
C       -5.00113753      -5.01407447      -4.95164915
C       -3.69949267      -4.71638160      -5.34163286
F       -3.19716264      -5.20309959      -6.48599686
C       -2.88687764      -3.90629185      -4.54973960
H       -1.96725256      -1.13494154      -4.08416061
H       -2.81654575      -3.66145113      -0.67964398
H       -1.40169193      -2.22726152       0.72697593
H       -5.09606482      -3.28059653      -2.03640153
H       -6.51415092      -4.71635054      -3.43804563
H       -1.87248527      -3.70764931      -4.88605486
C       -5.84168354      -5.85020846      -5.76893880
C       -6.54564082      -6.55047067      -6.45341888
Br      -7.68388021      -7.68273544      -7.56016527
F       -1.78359340      -1.01152655       1.99817988
C       -1.72435946       0.31842312       1.83413017
C       -2.52857293       1.12445285       2.63882127
C       -2.50492727       2.52206176       2.50358467
C       -1.64725845       3.07687206       1.53594380
C       -0.84002914       2.26539765       0.72942955
C       -0.88157047       0.88157047       0.88157047
C       -3.35146273       3.38041283       3.34923637
C       -4.19207723       4.35560361       2.78155384
C       -4.99892133       5.17381048       3.58091886
C       -4.97470188       5.02662842       4.96553086
C       -4.14893923       4.06687032       5.54169759
F       -4.10637106       3.90721457       6.87267348
C       -3.34504416       3.25024467       4.74762025
H       -3.18056028       0.64286327       3.36293115
H       -1.59037856       4.15741454       1.40984777
H       -0.18500565       2.72390400      -0.00693212
H       -4.23521767       4.47801710       1.69982812
H       -5.64056626       5.91578849       3.11219234
H       -2.70644854       2.52068992       5.23905098
C       -5.80592805       5.87035188       5.78455087
C       -6.50207996       6.57697029       6.47048013
Br      -7.62769872       7.71951248       7.57956972
F        1.99738622      -1.78444775      -1.01158724
C        1.83373096      -1.72478971       0.31839208
C        2.63842257      -2.52900281       1.12442167
C        2.50358953      -2.50492202       2.52206214
C        1.53634973      -1.64682103       3.07690355
C        0.72983428      -0.83959313       2.26542893
C        0.88157047      -0.88157047       0.88157047
C        3.34924459      -3.35145388       3.38041346
C        2.78160038      -4.19163031       4.35600399
C        3.58096863      -4.99846906       5.17421298
C        4.96554560      -4.97468454       5.02663101
C        5.54167417      -4.14935799       4.06647498
F        6.87261671      -4.10721305       3.90642934
C        4.74759322      -3.34546932       3.24984655
H        3.36221059      -3.18133241       0.64281171
H        1.41057666      -1.58959863       4.15746557
H       -0.00621121      -0.18423046       2.72395828
H        1.69989726      -4.23442885       4.47873678
H        3.11227069      -5.63977023       5.91650617
H        5.23899804      -2.70722037       2.51997103
C        5.78456916      -5.80590369       5.87035794
C        6.47050139      -6.50204973       6.57697925
Br       7.57959580      -7.62765899       7.71952613
