165
Properties=species:S:1:pos:R:3 pbc="F F F"
C        0.00000000       0.00000000       0.00000000
F        3.96688075       6.74006269      -7.13067301
C        5.29198899       6.72528182      -6.91411433
C        6.08708735       7.54106406      -7.72616503
C        7.48014308       7.58006208      -7.57428543
C        8.03372160       6.76519587      -6.57343648
C        7.23050491       5.94672285      -5.76295684
C        5.83552826       5.90611485      -5.91458648
C        4.99245550       5.04583666      -5.05710382
C        3.79786526       5.52059167      -4.49412247
C        2.99784690       4.70723325      -3.67489275
C        3.35180673       3.37986130      -3.38250649
C        4.54551847       2.90550243      -3.94472273
C        5.34037022       3.72137093      -4.75698282
F        6.46352690       3.18587166      -5.26149061
C        2.50604459       2.52201374      -2.52376418
C        1.09829914       2.57836958      -2.58704182
C        0.29141043       1.77169930      -1.77328291
C        0.88148127       0.88148127      -0.88148127
C        2.26705666       0.80588897      -0.80527491
C        3.07100999       1.61489162      -1.60938103
F        2.86214067      -0.04548073       0.04347543
C        8.32790095       8.43839643      -8.43056431
C        7.92753100       9.74131229      -8.78775077
C        8.72515862      10.55684310      -9.60144531
C        9.94736214      10.08290133     -10.06860432
C       10.36256637       8.80151465      -9.72512601
C        9.56564345       7.98600029      -8.92090904
F       11.53696849       8.32048316     -10.16013096
Br      11.02236012      11.18872249     -11.16082816
H        5.58911845       8.13154599      -8.49081740
H        9.10833796       6.76099600      -6.39704457
H        7.71755909       5.33955257      -5.00096266
H        3.47140272       6.54277520      -4.68130780
H        2.09083237       5.14150415      -3.25719202
H        4.87895925       1.88425282      -3.77773223
H        0.60615301       3.24944734      -3.28982060
H       -0.79044719       1.84580322      -1.85030504
H        4.14852331       1.52739922      -1.49676543
H        6.98486083      10.14672192      -8.42259005
H        8.38265558      11.55637281      -9.85753185
H        9.92661276       6.98566203      -8.69644589
F       -7.93251987      -4.82856254      -5.07653405
C       -7.33157706      -5.73010416      -5.86970392
C       -8.15115407      -6.52794465      -6.67521773
C       -7.60779384      -7.50018233      -7.52651442
C       -6.20969435      -7.63231050      -7.53034909
C       -5.39244422      -6.82997748      -6.71776291
C       -5.93533822      -5.85664537      -5.86424600
C       -5.07166672      -5.01112057      -5.01260869
C       -5.28745187      -3.62939605      -4.89573149
C       -4.46529362      -2.82301885      -4.09166044
C       -3.39092216      -3.35979942      -3.36345294
C       -3.17505235      -4.74029800      -3.48039328
C       -3.99491725      -5.53803760      -4.28576912
F       -3.72357132      -6.85207419      -4.33524367
C       -2.52849760      -2.51072989      -2.51259503
C       -3.06147037      -1.44739272      -1.75484745
C       -2.24943068      -0.63662402      -0.95033793
C       -0.88148127      -0.88148127      -0.88148127
C       -0.33505686      -1.92682855      -1.61633513
C       -1.14192739      -2.72924119      -2.42411406
F        0.97992713      -2.18690012      -1.56621151
C       -8.46795549      -8.34926063      -8.37964556
C       -9.59343210      -7.82067125      -9.04249072
C      -10.41331695      -8.62144515      -9.84868493
C      -10.11556109      -9.97096242     -10.01234429
C       -9.00776705     -10.51160648      -9.36983350
C       -8.19493744      -9.71662358      -8.56099178
F       -8.69679284     -11.80889372      -9.51189604
Br     -11.22087006     -11.04559029     -11.10545042
H       -9.22567253      -6.37974551      -6.60606379
H       -5.72607759      -8.36049531      -8.17980564
H       -4.31422510      -6.97664694      -6.76720229
H       -6.10300854      -3.15362282      -5.43885437
H       -4.67754304      -1.75556931      -4.05641618
H       -2.37326444      -5.23232406      -2.93535579
H       -4.13132559      -1.24340728      -1.77068809
H       -2.69788673       0.17472291      -0.38249726
H       -0.66013168      -3.52182688      -2.99072940
H       -9.84147363      -6.76428529      -8.94841389
H      -11.27434899      -8.17886227     -10.34334896
H       -7.35177996     -10.19117332      -8.06576740
F       -4.80909780       5.09783517       7.93068348
C       -5.72014147       5.88069359       7.33055007
C       -6.51788642       6.68635629       8.15007373
C       -7.49962928       7.52725208       7.60760923
C       -7.64131191       7.52058574       6.21045629
C       -6.83901022       6.70789761       5.39327678
C       -5.85616091       5.86478598       5.93528270
C       -5.01071790       5.01302435       5.07165374
C       -3.62678402       4.90705692       5.27873847
C       -2.82053027       4.10287740       4.45656524
C       -3.35961227       3.36366647       3.39089579
C       -4.74232127       3.46970482       3.18371754
C       -5.53996242       4.27523222       4.00352934
F       -6.85612762       4.31388025       3.74088130
C       -2.51062153       2.51271694       2.52848404
C       -1.43849662       1.76591581       3.05929810
C       -0.62777957       0.96139727       2.24721579
C       -0.88148127       0.88148127       0.88148127
C       -1.93555167       1.60542007       0.33724881
C       -2.73797075       2.41322936       1.14408253
F       -2.20423440       1.54449616      -0.97554606
C       -8.34865983       8.38045914       8.46774273
C       -7.81697133       9.05460583       9.58501690
C       -8.61765212       9.86093101      10.40486390
C       -9.97026047      10.01333521      10.11527212
C      -10.51402212       9.35956114       9.01562378
C       -9.71906576       8.55059752       8.20288950
F      -11.81434474       9.49063495       8.71260291
Br     -11.04480599      11.10665115      11.22045364
H       -6.36189173       6.62559421       9.22399589
H       -8.37722000       8.16172537       5.72743316
H       -6.99336517       6.74893108       4.31577807
H       -3.14920064       5.45899875       6.08728633
H       -1.75144129       4.07637162       4.66171562
H       -5.23604967       2.91583216       2.38906246
H       -1.22733364       1.79049274       4.12759457
H        0.19048658       0.40219539       2.69395226
H       -3.53769549       2.97110498       0.66388749
H       -6.75829736       8.96944054       9.82643491
H       -8.17261469      10.36450218      11.25944336
H      -10.19594282       8.04637077       7.36640709
F        5.09010446      -7.93138097       4.81613102
C        5.87670529      -7.33093869       5.72374117
C        6.68231401      -8.15048186       6.52152057
C        7.52698455      -7.60767712       7.49982891
C        7.52412923      -6.21016543       7.63805928
C        6.71147800      -5.39296023       6.83574638
C        5.86459002      -5.93530362       5.85633594
C        5.01287346      -5.07165909       5.01086344
C        4.90295887      -5.28190610       3.62771444
C        4.09881875      -4.45973811       2.82141604
C        3.36358899      -3.39090566       3.35967988
C        3.47357169      -3.18056835       4.74160360
C        4.27904415      -4.00039958       5.53928025
F        4.32160912      -3.73459030       6.85468975
C        2.51267270      -2.52848914       2.51066068
C        1.76190075      -3.06010083       1.44170895
C        0.95738555      -2.24803392       0.63097317
C        0.88148127      -0.88148127       0.88148127
C        1.60937945      -0.33643920       1.93240190
C        2.41717776      -1.14328628       2.73481859
F        1.55237324       0.97716406       2.19797532
C        8.38016410      -8.46782092       8.34887667
C        9.05022060      -9.58807799       7.81829547
C        9.85649830     -10.40793887       8.61900986
C       10.01297590     -10.11537814       9.97051375
C        9.36327821      -9.01276748      10.51316133
C        8.55435870      -8.19999855       9.71819553
F        9.49832904      -8.70685427      11.81239930
Br      11.10621587     -11.22060607      11.04508884
H        6.61850612      -9.22463284       6.36834287
H        8.16828747      -5.72691456       8.37117650
H        6.75556220      -4.31518782       6.98732431
H        5.45170996      -6.09300145       3.15077432
H        4.06915159      -4.66746847       1.75290847
H        2.92289546      -2.38332092       5.23472791
H        1.78330833      -4.12897457       1.23313805
H        0.39504998      -2.69540564      -0.18479454
H        2.97822391      -0.66249881       3.53196523
H        8.96183035      -9.83190435       6.76043810
H       10.35684583     -11.26486490       8.17484951
H        8.05338982      -7.36108900      10.19424187
