186
Properties=species:S:1:pos:R:3 pbc="F F F"
F        4.87678478       7.64996671      -8.04057704
C        6.20189302       7.63518584      -7.82401836
C        6.99699138       8.45096808      -8.63606906
C        8.39004710       8.48996610      -8.48418946
C        8.94362562       7.67509989      -7.48334050
C        8.14040893       6.85662688      -6.67286087
C        6.74543228       6.81601887      -6.82449051
C        5.90235953       5.95574068      -5.96700785
C        4.70776929       6.43049569      -5.40402650
C        3.90775093       5.61713728      -4.58479678
C        4.26171076       4.28976533      -4.29241052
C        5.45542249       3.81540646      -4.85462675
C        6.25027425       4.63127496      -5.66688685
F        7.37343093       4.09577569      -6.17139463
C        3.41594861       3.43191776      -3.43366821
C        2.00820316       3.48827360      -3.49694585
C        1.20131445       2.68160332      -2.68318693
C        1.79138529       1.79138529      -1.79138529
C        3.17696069       1.71579300      -1.71517894
C        3.98091401       2.52479565      -2.51928505
F        3.77204469       0.86442329      -0.86642859
C        9.23780498       9.34830046      -9.34046833
C        8.83743502      10.65121632      -9.69765479
C        9.63506264      11.46674712     -10.51134934
C       10.85726616      10.99280536     -10.97850835
C       11.27247040       9.71141867     -10.63503003
C       10.47554748       8.89590432      -9.83081306
F       12.44687251       9.23038718     -11.07003498
Br      11.93226415      12.09862652     -12.07073219
H        6.49902247       9.04145001      -9.40072142
H       10.01824199       7.67090002      -7.30694859
H        8.62746311       6.24945660      -5.91086669
H        4.38130674       7.45267922      -5.59121183
H        3.00073639       6.05140817      -4.16709604
H        5.78886327       2.79415684      -4.68763625
H        1.51605704       4.15935136      -4.19972463
H        0.11945683       2.75570725      -2.76020907
H        5.05842733       2.43730325      -2.40666945
H        7.89476485      11.05662595      -9.33249408
H        9.29255960      12.46627683     -10.76743587
H       10.83651678       7.89556606      -9.60634992
F       -5.03830192      -8.47023267      -7.05879393
C       -6.28860517      -8.05468343      -7.31780862
C       -7.08655461      -8.87431835      -8.12315557
C       -8.40078495      -8.51275345      -8.45066427
C       -8.87298526      -7.29542839      -7.93365236
C       -8.06636708      -6.47590037      -7.12762922
C       -6.74990781      -6.83639597      -6.79963788
C       -5.90453988      -5.97280785      -5.94776032
C       -5.12255158      -6.50739881      -4.91234110
C       -4.32274542      -5.68873358      -4.09820598
C       -4.26366840      -4.29761810      -4.28260010
C       -5.04518465      -3.76334322      -5.31692783
C       -5.84288797      -4.58318885      -6.12235923
F       -6.55387573      -3.99127619      -7.09544932
C       -3.41700230      -3.43647114      -3.42806115
C       -2.14391005      -3.85794299      -2.99156957
C       -1.33879801      -3.04891026      -2.17839644
C       -1.79138529      -1.79138529      -1.79138529
C       -3.04101787      -1.35355419      -2.21336056
C       -3.84665470      -2.16213863      -3.01620138
F       -3.50072840      -0.14469362      -1.85747455
C       -9.25003721      -9.37300758      -9.30352898
C       -9.24263414     -10.77553469      -9.16813730
C      -10.04238425     -11.59487532      -9.97589953
C      -10.87343278     -11.02151356     -10.93363353
C      -10.89823149      -9.63950814     -11.08117947
C      -10.09677782      -8.82323881     -10.28224823
F      -11.69148067      -9.06059903     -11.99521497
Br     -11.95467064     -12.13033625     -12.01661596
H       -6.64681163      -9.79385889      -8.50052339
H       -9.88978290      -6.96523149      -8.14107621
H       -8.48986414      -5.54483635      -6.75308591
H       -5.12858878      -7.57907468      -4.71753434
H       -3.75175051      -6.16488671      -3.30260338
H       -5.04079048      -2.69766988      -5.53219600
H       -1.75225356      -4.82803665      -3.29484281
H       -0.36388504      -3.41041841      -1.86106970
H       -4.82188265      -1.77743129      -3.30308609
H       -8.61644786     -11.25226036      -8.41517665
H      -10.00908065     -12.67347069      -9.84372096
H      -10.13871683      -7.75011554     -10.44960038
F       -8.84065509       5.71966661       6.00700684
C       -8.24049169       6.63038573       6.79021980
C       -9.06001720       7.42813394       7.59587738
C       -8.51751973       8.40955217       8.43713077
C       -7.12033206       8.55090849       8.43082546
C       -6.30315011       7.74860574       7.61814082
C       -6.84518875       6.76608148       6.77467144
C       -5.98155830       5.92063568       5.92291407
C       -6.18894284       4.53677533       5.81657331
C       -5.36677009       3.73051736       5.01239752
C       -4.30080077       4.26952268       4.27356316
C       -4.09332302       5.65215811       4.37997457
C       -4.91313666       6.44980262       5.18549677
F       -4.65018892       7.76589705       5.22451528
C       -3.43838856       3.42052925       3.42261677
C       -3.96927887       2.34870417       2.67543957
C       -3.15719801       1.53798535       1.87092135
C       -1.79138529       1.79138529       1.79138529
C       -1.24707545       2.84515808       2.51569909
C       -2.05391044       3.64757694       3.32350734
F        0.06579668       3.11354703       2.45514622
C       -9.37765421       9.25858434       9.29033522
C      -10.49521126       8.72699989       9.96409499
C      -11.31505957       9.52768385      10.77041567
C      -11.02518624      10.88018842      10.92320521
C       -9.92525697      11.42384537      10.26981676
C       -9.11251942      10.62888813       9.46085732
F       -9.62196182      12.72406606      10.40126680
Br     -12.13037217      11.95473672      12.01651396
H      -10.13396164       7.27240552       7.53482675
H       -6.63728676       9.28655278       9.07225106
H       -5.22562488       7.90269821       7.65946330
H       -6.99773221       4.05925223       6.36821335
H       -5.57216506       2.66148280       4.98559274
H       -3.29842217       6.14582995       3.82640424
H       -5.03763059       2.13778613       2.69971631
H       -3.60399521       0.71995527       1.31142268
H       -1.57365872       4.44705806       3.88168325
H      -10.73685763       7.66840261       9.87862464
H      -12.16986157       9.08272885      11.27368189
H       -8.27580684      11.10568717       8.95693875
F        8.84129803      -5.72617032       5.99986017
C        8.24084999      -6.63371443       6.78653280
C        9.06039354      -7.43149449       7.59214049
C        8.51758244      -8.40973677       8.43688344
C        7.12006403      -8.54790075       8.43410124
C        6.30285834      -7.74558762       7.62145072
C        6.84520804      -6.76624333       6.77449029
C        5.98156321      -5.92077026       5.92277459
C        6.19187083      -4.53763651       5.81278414
C        5.36970295      -3.73133725       5.00864477
C        4.30080987      -4.26958521       4.27349153
C        4.09041200      -5.65149367       4.38355003
C        4.91024361      -6.44917101       5.18902144
F        4.64437373      -7.76456582       5.23166169
C        3.43839326      -3.42056545       3.42257587
C        3.97002010      -2.35167479       2.67172773
C        3.15795348      -1.54093864       1.86721259
C        1.79138529      -1.79138529       1.79138529
C        1.24632785      -2.84224532       2.51935945
C        2.05317519      -3.64466196       3.32715756
F       -0.06729077      -3.10775891       2.46242843
C        9.37772644      -9.25878487       9.29006246
C       10.49804066      -8.72822511       9.96004037
C       11.31790181      -9.52894014      10.76631715
C       11.02528419     -10.88042265      10.92287303
C        9.92261676     -11.42304867      10.27325367
C        9.10984717     -10.62808268       9.46433501
F        9.61664812     -12.72226563      10.40838092
Br      12.13051300     -11.95499831      12.01611154
H       10.13454877      -7.27837098       7.52827416
H        6.63680893      -9.28096428       9.07831739
H        5.22508081      -7.89711215       7.66559344
H        7.00301501      -4.06070888       6.36147390
H        5.57748277      -2.66284098       4.97891685
H        3.29311488      -6.14460624       3.83293524
H        5.03890478      -2.14315375       2.69307449
H        3.60533726      -0.72521901       1.30481688
H        1.57237648      -4.44175900       3.88826455
H       10.74191318      -7.67038355       9.87158814
H       12.17487280      -9.08479677      11.26660273
H        8.27089110     -11.10411292       8.96342873
C       -0.00445707       0.01189536      -1.78238275
H       -0.66409135       0.67374010      -2.43557963
H        0.65740317      -0.63156657      -2.45157240
C       -0.90989263      -0.90692880      -0.91072765
C        0.90977584       0.90977584      -0.90977584
C       -0.00465871       1.77757030       0.00794375
H       -0.66225468       2.44313916      -0.64384735
H        0.64322798       2.43503045       0.67728295
C       -1.78241447       0.00034974      -0.00472694
H       -2.45427497      -0.65498947       0.64260836
H       -2.43311707       0.67328779      -0.65473579
C       -0.91132561       0.90220522       0.91563759
C       -0.01476271      -0.02253852       1.78660255
H       -0.67934791      -0.69751639       2.42135241
H        0.63392994       0.61504881       2.47327442
C        0.01484550      -1.77751727      -0.01636693
H        0.67870853      -2.42144646      -0.68295456
H       -0.62264859      -2.45592969       0.64226336
C        1.78714474       0.01002794       0.00389507
H        2.44202412       0.67113390       0.66197326
H        2.45385902      -0.65136977      -0.64189061
C        0.91606151      -0.90478549       0.90901405
