181
Properties=species:S:1:pos:R:3 pbc="F F F"
C        0.00000000       0.00000000       0.00000000
F        7.80632220      10.50497288      -8.93455026
C        8.82549128       9.83716777      -9.49645756
C        9.63615718      10.50895701     -10.41300513
C       10.71845416       9.86173875     -11.03342817
C       10.94600534       8.51397656     -10.69199928
C       10.12744413       7.83992537      -9.77551425
C        9.05972673       8.50366327      -9.17359563
C        8.21625157       7.80920914      -8.25168070
C        7.50606129       7.20528300      -7.49525103
C        6.60026963       6.40856918      -6.55259683
C        5.89176859       5.76023115      -5.83218430
C        5.05132850       4.96631962      -4.99129427
C        5.61492345       4.02545169      -4.13073223
C        4.79068349       3.23115699      -3.32284713
C        3.38874777       3.36015530      -3.35091238
C        2.84311962       4.31967956      -4.21990989
C        3.66632555       5.10550838      -5.02728170
F        3.09320807       6.00024067      -5.84661465
C        2.52469808       2.51308906      -2.50334852
C        2.85760014       2.24172795      -1.16225763
C        2.04795144       1.43092472      -0.35726594
C        0.88149540       0.88149540      -0.88149540
C        0.53336223       1.14193230      -2.20200683
C        1.34224675       1.94407497      -3.00690842
F       -0.58522639       0.62530099      -2.73203719
C       11.58009857      10.56217157     -12.01244342
C       11.93255243      11.91566935     -11.84763189
C       12.74251566      12.58180841     -12.77668970
C       13.22314110      11.89893351     -13.88988930
C       12.89255868      10.56082816     -14.06944407
C       12.08047074       9.89900865     -13.14710435
F       13.34745918       9.88028382     -15.13269477
Br      14.31927671      12.80078908     -15.13755880
H        9.39013914      11.54222622     -10.64200933
H       11.77647461       7.96818539     -11.13808056
H       10.32997390       6.79699807      -9.53947267
H        6.69421464       3.89559254      -4.08677554
H        5.26136934       2.49136283      -2.67691518
H        1.76968955       4.47915697      -4.27961457
H        3.75537114       2.67272043      -0.72115284
H        2.33894729       1.24112530       0.67257621
H        1.03647270       2.10388863      -4.03770260
H       11.58784325      12.47154529     -10.97737112
H       12.99154506      13.62788352     -12.61632415
H       11.83512123       8.85602715     -13.33113412
F      -10.31783798      -7.63249521      -9.29551215
C       -9.93837472      -8.91950100      -9.30124089
C      -10.73306701      -9.84432983      -9.98072248
C      -10.38624223     -11.20565811     -10.02172073
C       -9.20963492     -11.59219266      -9.35015360
C       -8.41616112     -10.66270146      -8.66402117
C       -8.78152241      -9.31782620      -8.63763703
C       -7.97949197      -8.37442492      -7.92322453
C       -7.30555344      -7.59920110      -7.30184077
C       -6.44429813      -6.63345775      -6.48367976
C       -5.76617951      -5.89729394      -5.82071059
C       -4.95529045      -5.04108365      -5.01256829
C       -3.56932927      -5.19123771      -5.01054040
C       -2.77560819      -4.36753058      -4.20154884
C       -3.34425551      -3.37397868      -3.38158126
C       -4.74204053      -3.23544482      -3.40522373
C       -5.53031762      -4.06092492      -4.20787308
F       -6.86135100      -3.89308142      -4.18563096
C       -2.50249634      -2.51485865      -2.52378067
C       -1.29096828      -1.97445278      -2.99616466
C       -0.48379628      -1.16817707      -2.18416874
C       -0.88149540      -0.88149540      -0.88149540
C       -2.07686116      -1.40180457      -0.39863562
C       -2.87866684      -2.21037607      -1.20418721
F       -2.48369108      -1.14100618       0.85258547
C      -11.22551678     -12.19627066     -10.73292612
C      -11.86304258     -11.88366816     -11.94914294
C      -12.66298613     -12.81792051     -12.62010713
C      -12.83394609     -14.09166121     -12.08635662
C      -12.20920841     -14.42371605     -10.88990645
C      -11.41738584     -13.49087008     -10.21832783
F      -12.35571226     -15.64685004     -10.35787547
Br     -13.91009295     -15.34969355     -12.99783809
H      -11.63630022      -9.47752317     -10.46055130
H       -8.89123793     -12.63388521      -9.35761741
H       -7.51633685     -10.99815764      -8.15195014
H       -3.09650290      -5.95195145      -5.62812836
H       -1.69790405      -4.52433657      -4.20740673
H       -5.24280643      -2.47903286      -2.80662180
H       -0.96408967      -2.16824792      -4.01690682
H        0.44639050      -0.77143746      -2.58244941
H       -3.79518377      -2.60749312      -0.77538704
H      -11.73320595     -10.90201016     -12.40154355
H      -13.14069314     -12.53900073     -13.55605887
H      -10.95679027     -13.78649071      -9.27900152
F      -10.33684491       7.64462387       9.26437657
C       -9.94268373       8.92697204       9.28946083
C      -10.73453624       9.85310968       9.97047340
C      -10.37256434      11.20974447      10.03131227
C       -9.18384429      11.59025562       9.37788128
C       -8.39318633      10.65954698       8.69015044
C       -8.77367305       9.31941064       8.64390195
C       -7.97429039       8.37501969       7.92783134
C       -7.30212985       7.59920447       7.30526100
C       -6.44257922       6.63297904       6.48587737
C       -5.76530523       5.89664862       5.82223020
C       -4.95496987       5.04041279       5.01355973
C       -3.56744239       5.17442959       5.02923540
C       -2.77388866       4.35090227       4.21989668
C       -3.34434803       3.37354501       3.38192240
C       -4.74381572       3.25103573       3.38785762
C       -5.53183192       4.07634540       4.19093831
F       -6.86435996       3.92428124       4.15142219
C       -2.50260190       2.51461198       2.52392178
C       -1.30295845       1.95473159       3.00389568
C       -0.49571996       1.14851129       2.19191084
C       -0.88149540       0.88149540       0.88149540
C       -2.06508806       1.42121416       0.39099913
C       -2.86685948       2.22974163       1.19662902
F       -2.46029431       1.17959211      -0.86777463
C      -11.20860529      12.20181101      10.74429726
C      -11.86380784      11.88267424      11.94937160
C      -12.66070323      12.81839334      12.62191720
C      -12.81076157      14.10009853      12.10110381
C      -12.16835169      14.43860642      10.91587280
C      -11.37955285      13.50439515      10.24263574
F      -12.29455979      15.66940709      10.39647089
Br     -13.88289700      15.36000205      13.01472554
H      -11.64745881       9.49134737      10.43556851
H       -8.85358536      12.62801463       9.40114057
H       -7.48365765      10.99037387       8.19241311
H       -3.09311461       5.92242552       5.66104258
H       -1.69459214       4.49506920       4.23998600
H       -5.24625087       2.50744782       2.77476240
H       -0.98578003       2.13294364       4.03052075
H        0.42513674       0.73640736       2.59622575
H       -3.77368840       2.64241507       0.76196045
H      -11.75055760      10.89442797      12.39177409
H      -13.15245680      12.53429987      13.54899606
H      -10.90467687      13.80542536       9.31218027
F        8.09975648     -10.62824477       8.51784409
C        8.89978467      -9.92527694       9.33405499
C        9.67174500     -10.61841702      10.26795730
C       10.52837873      -9.93631812      11.14892422
C       10.57173743      -8.53173532      11.04850843
C        9.79168764      -7.83753709      10.11365903
C        8.94939609      -8.53677025       9.25081929
C        8.14238900      -7.82534797       8.30940445
C        7.45680756      -7.21095985       7.53882791
C        6.57474994      -6.40529788       6.58138781
C        5.87812725      -5.75344687       5.85260991
C        5.04561198      -4.95829866       5.00503175
C        5.56011483      -3.81437838       4.39661417
C        4.73857866      -3.02209950       3.58400945
C        3.38936535      -3.35447705       3.35597305
C        2.89431814      -4.51542634       3.97296458
C        3.71348985      -5.29951270       4.78611308
F        3.18784468      -6.39285450       5.35936421
C        2.52581097      -2.50977209       2.50555260
C        2.99766329      -1.97069823       1.29322419
C        2.18714902      -1.16071051       0.48828256
C        0.88149540      -0.88149540       0.88149540
C        0.39590960      -1.40863411       2.07275764
C        1.20422871      -2.21027212       2.87872930
F       -0.85836536      -1.15548665       2.47499050
C       11.34589029     -10.66059978      12.14822348
C       11.94192758     -11.90174495      11.85218115
C       12.71044700     -12.59159031      12.79897647
C       12.90344280     -12.04459957      14.06392155
C       12.32920881     -10.81780430      14.37581780
C       11.55838007     -10.13361155      13.43459212
F       12.50470692     -10.26835214      15.58737871
Br      13.94494039     -12.97690003      15.33578417
H        9.57344040     -11.70001909      10.30091520
H       11.22506178      -7.95534109      11.70233768
H        9.84697053      -6.75159063      10.06788347
H        6.59687477      -3.52493253       4.55477541
H        5.16555402      -2.12387183       3.14022150
H        1.86600904      -4.83556799       3.82688405
H        4.00935827      -2.18715946       0.95272669
H        2.58710386      -0.75977658      -0.43938407
H        0.78466177      -2.58425694       3.80914522
H       11.82502446     -12.34637446      10.86536073
H       13.15306696     -13.54862407      12.53406171
H       11.11646354      -9.18306195      13.72275701
