121
Properties=species:S:1:pos:R:3 pbc="F F F"
C        0.00000000       0.00000000       0.00000000
C        0.91733867       0.91733867      -0.91733867
C        0.55210239       0.69739938      -2.37578780
C        1.45621559       1.48143269      -3.32421307
Br       1.03256368       0.95115810      -5.16329365
N        1.24993567       2.90616898      -3.26652600
C        2.02339809       3.70788771      -2.47126781
O        2.88272878       3.28459178      -1.71130598
C        1.71825053       5.15027048      -2.62666761
C        2.56143215       6.05807121      -2.11260916
C        2.35839886       7.50527125      -2.23674310
C        3.43725880       8.30724835      -2.63357573
C        3.29251575       9.69329350      -2.74434068
C        2.06752876      10.28237105      -2.44462118
O        1.90857660      11.63552069      -2.54375014
C        0.99297690       9.49457075      -2.03174631
O       -0.19758125      10.09508780      -1.72832133
C        1.13296989       8.11015670      -1.92421210
H        1.95102212       0.63499970      -0.70206911
H        0.73287671       1.94241880      -0.58860911
H       -0.49876094       0.97322094      -2.53903535
H        0.62643548      -0.37429947      -2.60520079
H        2.51252536       1.23416967      -3.17449000
H        0.59732935       3.30380630      -3.92712912
H        0.82455440       5.43423718      -3.16654300
H        3.47122800       5.74602052      -1.60258590
H        4.39978186       7.85668663      -2.86830349
H        4.14161829      10.29088717      -3.06109574
H        2.74604445      12.03455275      -2.82431735
H       -0.81352186       9.43017859      -1.38564540
H        0.29868668       7.50308303      -1.58660777
C       -0.91733867      -0.91733867      -0.91733867
C       -1.89196355      -1.68940689      -0.04391913
C       -2.74826562      -2.66232473      -0.85127100
Br      -3.80051039      -3.74533645       0.39883140
N       -3.70389066      -2.00941973      -1.70932025
C       -3.42444569      -1.75354245      -3.02456546
O       -2.34404220      -1.98726307      -3.54732127
C       -4.56999021      -1.16578514      -3.75941327
C       -4.52832627      -1.10501329      -5.09877297
C       -5.62164063      -0.56505731      -5.91371527
C       -6.05472464      -1.29270651      -7.03065173
C       -7.07973405      -0.80423344      -7.84618245
C       -7.66605459       0.42337841      -7.55184481
O       -8.66646281       0.91816385      -8.33954847
C       -7.22979774       1.16323754      -6.45273376
O       -7.80955832       2.37355722      -6.18982678
C       -6.20963717       0.67645103      -5.63415255
H       -0.24247983      -1.57731712      -1.46829398
H       -1.42075933      -0.23622222      -1.60692306
H       -2.53278121      -0.98604410       0.50532996
H       -1.32708987      -2.24627122       0.71602428
H       -2.13343759      -3.36868818      -1.41905925
H       -4.63090704      -1.86081747      -1.33654026
H       -5.42095560      -0.81190945      -3.19246953
H       -3.67412538      -1.49864611      -5.64706293
H       -5.60149718      -2.25269160      -7.27058320
H       -7.40177424      -1.39099075      -8.70083621
H       -8.83856748       0.29674596      -9.06309303
H       -7.34839235       2.79552073      -5.44943052
H       -5.86225964       1.26348624      -4.78960409
C       -0.91733867       0.91733867       0.91733867
C       -1.90522649       1.67438838       0.04567470
C       -2.76287204       2.64690042       0.85208889
Br      -3.83394301       3.71118306      -0.39811064
N       -3.70620074       1.99330731       1.72312260
C       -3.41408108       1.75039953       3.03807300
O       -2.33143182       1.99707383       3.55012088
C       -4.54884071       1.15941541       3.78693250
C       -4.49587888       1.10987791       5.12635573
C       -5.57815437       0.56776488       5.95449395
C       -6.00811684       1.30095713       7.06900891
C       -7.02250587       0.81087952       7.89676455
C       -7.60117746      -0.42377646       7.61712000
O       -8.59114009      -0.92019389       8.41690123
C       -7.16779923      -1.16900726       6.52050200
O       -7.73979835      -2.38606362       6.27209316
C       -6.15826961      -0.68068002       5.68974910
H       -0.24344707       1.58720016       1.45744371
H       -1.40962241       0.23781420       1.61646800
H       -2.54471249       0.96143393      -0.49265108
H       -1.35105078       2.22959241      -0.72330639
H       -2.14924878       3.36279643       1.40913981
H       -4.63495524       1.83420323       1.35910629
H       -5.40144612       0.79408567       3.22980280
H       -3.64051207       1.51483656       5.66448579
H       -5.56079171       2.26648756       7.29749271
H       -7.34240198       1.40195167       8.74924755
H       -8.76245026      -0.29432014       9.13678442
H       -7.28120414      -2.81030094       5.53139893
H       -5.81295404      -1.27174345       4.84716690
C        0.91733867      -0.91733867       0.91733867
C        1.73342822      -0.04005885       1.85180250
C        2.70744153      -0.85027695       2.70414288
Br       3.84513252       0.39774487       3.69962778
N        2.05778514      -1.66923815       3.69560736
C        1.76400902      -2.98413440       3.45441018
O        1.95888305      -3.53794277       2.38180072
C        1.18701135      -3.67703889       4.63113837
C        1.09344144      -5.01513470       4.62353638
C        0.56104358      -5.79049147       5.74887816
C        1.27227604      -6.91420075       6.19160610
C        0.78965509      -7.69302119       7.24747366
C       -0.41598556      -7.35504991       7.85545665
O       -0.90485282      -8.10649022       8.88621004
C       -1.13992158      -6.24893397       7.41028157
O       -2.32918641      -5.94295183       8.01206246
C       -0.65879574      -5.46690856       6.35922587
H        1.54742317      -1.50006890       0.24059887
H        0.23248474      -1.57798898       1.45343089
H        1.05911554       0.54121321       2.49559302
H        2.29427795       0.69247359       1.25553244
H        3.38494517      -1.44953303       2.08670682
H        1.94068448      -1.27103427       4.61654602
H        0.86751803      -3.08159489       5.47622166
H        1.45303331      -5.59298010       3.77382100
H        2.21497618      -7.18812257       5.72167323
H        1.36360591      -8.55380889       7.57618640
H       -0.29679547      -8.84065008       9.06105993
H       -2.74453890      -5.20367112       7.54316992
H       -1.23388099      -4.61681550       6.00544297
