142
Properties=species:S:1:pos:R:3 pbc="F F F"
C        1.82724269       1.82724269      -1.82724269
C        1.46200642       1.60730340      -3.28569182
C        2.36611961       2.39133672      -4.23411710
Br       1.94246771       1.86106212      -6.07319768
N        2.15983969       3.81607300      -4.17643003
C        2.93330212       4.61779173      -3.38117183
O        3.79263281       4.19449580      -2.62121001
C        2.62815455       6.06017450      -3.53657163
C        3.47133618       6.96797524      -3.02251318
C        3.26830288       8.41517528      -3.14664712
C        4.34716283       9.21715238      -3.54347975
C        4.20241978      10.60319752      -3.65424471
C        2.97743279      11.19227508      -3.35452521
O        2.81848062      12.54542472      -3.45365417
C        1.90288092      10.40447478      -2.94165034
O        0.71232278      11.00499183      -2.63822535
C        2.04287391       9.02006073      -2.83411612
H        2.86092615       1.54490373      -1.61197313
H        1.64278073       2.85232282      -1.49851313
H        0.41114308       1.88312496      -3.44893937
H        1.53633951       0.53560455      -3.51510482
H        3.42242938       2.14407369      -4.08439402
H        1.50723338       4.21371032      -4.83703314
H        1.73445842       6.34414121      -4.07644703
H        4.38113203       6.65592454      -2.51248992
H        5.30968588       8.76659066      -3.77820751
H        5.05152231      11.20079119      -3.97099977
H        3.65594847      12.94445677      -3.73422137
H        0.09638217      10.34008262      -2.29554943
H        1.20859071       8.41298706      -2.49651180
C       -1.82724269      -1.82724269      -1.82724269
C       -3.25185641      -1.80389429      -1.29925094
C       -4.17464977      -2.73685446      -2.08006919
Br      -5.91416567      -2.78507172      -1.17749011
N       -4.43919030      -2.28938021      -3.42377221
C       -3.70379376      -2.74329010      -4.48518182
O       -2.74233374      -3.49074129      -4.37526358
C       -4.19403042      -2.24019987      -5.79067039
C       -3.73982654      -2.80023290      -6.92176515
C       -4.18387642      -2.38865365      -8.25759521
C       -4.54869615      -3.37663248      -9.18246632
C       -4.95787868      -3.02880843     -10.47317491
C       -4.99029667      -1.68809688     -10.84583952
O       -5.38400378      -1.32968519     -12.10387054
C       -4.61211844      -0.69870179      -9.93818581
O       -4.63753409       0.61141480     -10.32942067
C       -4.20717172      -1.04231728      -8.64756176
H       -1.39097897      -2.82892657      -1.79789747
H       -1.74626348      -1.41284088      -2.83451233
H       -3.63944178      -0.77626566      -1.32749997
H       -3.24589265      -2.09978419      -0.24137204
H       -3.80494864      -3.76771044      -2.07823801
H       -5.26522353      -1.72583358      -3.56691973
H       -4.92075237      -1.43854860      -5.79574569
H       -3.03361357      -3.62808594      -6.88784699
H       -4.52494538      -4.42788572      -8.90165295
H       -5.24254305      -3.81285575     -11.16791447
H       -5.59581044      -2.12823055     -12.61058563
H       -4.27558996       1.16437168      -9.62079593
H       -3.89801311      -0.26996796      -7.95010849
C       -1.82724269       1.82724269       1.82724269
C       -1.27018910       1.84397299       3.24083955
C       -2.15344842       2.63565839       4.20246662
Br      -1.45421559       2.40344422       6.01906770
N       -2.14365324       4.05477099       3.95391849
C       -3.10219005       4.65055105       3.17952457
O       -3.98071516       4.03485646       2.59276699
C       -2.97272306       6.12638419       3.12579344
C       -3.98129162       6.85539107       2.62514191
C       -3.95661407       8.32006524       2.55344598
C       -5.07805690       9.03695528       2.99278278
C       -5.10430728      10.43292451       2.92263022
C       -4.00998676      11.11530777       2.39893854
O       -4.01928258      12.47900603       2.31927089
C       -2.89649769      10.40977681       1.94273154
O       -1.83800341      11.09895756       1.41857898
C       -2.86541046       9.01638600       2.01525430
H       -2.83292767       1.40153364       1.78334171
H       -1.81791196       2.81481754       1.36088719
H       -0.25274943       2.25843627       3.23202172
H       -1.17646076       0.81021888       3.60036924
H       -3.17842826       2.25045636       4.22201248
H       -1.47679890       4.60828446       4.47289348
H       -2.06755489       6.58003455       3.50745722
H       -4.89518136       6.37613797       2.27822716
H       -5.93961084       8.51278875       3.40208446
H       -5.98201099      10.96464902       3.27665326
H       -4.86370279      12.81182788       2.65909595
H       -1.18405347      10.47059958       1.07736116
H       -2.00346678       8.47088267       1.64374011
C        1.82724269      -1.82724269       1.82724269
C        2.18759546      -3.09549524       1.07191094
C        2.99625879      -4.06894052       1.92637412
Br       3.21042010      -5.74083294       0.92547447
N        4.33034365      -3.60748203       2.21451705
C        4.61984539      -2.93908306       3.37333722
O        3.77956793      -2.62463466       4.20413602
C        6.06303160      -2.63619713       3.52567196
C        6.52424561      -2.22226276       4.71531623
C        7.93719108      -1.92280480       4.97012940
C        8.54110676      -2.44413322       6.12255498
C        9.87978439      -2.16605335       6.41402427
C       10.61502436      -1.35250515       5.55670356
O       11.92323455      -1.06705104       5.82727392
C       10.01783125      -0.81450160       4.41667319
O       10.75407605      -0.00600926       3.59545465
C        8.68283475      -1.09360216       4.12061384
H        1.25112169      -2.03394658       2.73273474
H        2.70240051      -1.22075803       2.07045815
H        2.74496760      -2.83718062       0.16105920
H        1.26392250      -3.58651271       0.73661367
H        2.46810157      -4.33454924       2.84824628
H        5.06528631      -3.90437089       1.58831964
H        6.71256498      -2.77155018       2.67093150
H        5.85486146      -2.12618544       5.56849959
H        7.97439966      -3.07971371       6.80037069
H       10.32579873      -2.58846876       7.30904578
H       12.17863167      -1.50019478       6.65580016
H       10.18214513       0.34820280       2.89807188
H        8.21781867      -0.65920290       3.24106799
C       -0.00445707       0.01189536      -1.78238275
H       -0.66409135       0.67374010      -2.43557963
H        0.65740317      -0.63156657      -2.45157240
C       -0.90989263      -0.90692880      -0.91072765
C        0.90977584       0.90977584      -0.90977584
C       -0.00465871       1.77757030       0.00794375
H       -0.66225468       2.44313916      -0.64384735
H        0.64322798       2.43503045       0.67728295
C       -1.78241447       0.00034974      -0.00472694
H       -2.45427497      -0.65498947       0.64260836
H       -2.43311707       0.67328779      -0.65473579
C       -0.91132561       0.90220522       0.91563759
C       -0.01476271      -0.02253852       1.78660255
H       -0.67934791      -0.69751639       2.42135241
H        0.63392994       0.61504881       2.47327442
C        0.01484550      -1.77751727      -0.01636693
H        0.67870853      -2.42144646      -0.68295456
H       -0.62264859      -2.45592969       0.64226336
C        1.78714474       0.01002794       0.00389507
H        2.44202412       0.67113390       0.66197326
H        2.45385902      -0.65136977      -0.64189061
C        0.91606151      -0.90478549       0.90901405
