129
Properties=species:S:1:pos:R:3 pbc="F F F"
C        0.00000000       0.00000000       0.00000000
C        0.91733867       0.91733867      -0.91733867
C        0.55210239       0.69739938      -2.37578780
C        1.45621559       1.48143269      -3.32421307
N        1.24993567       2.90616898      -3.26652600
C        2.02339809       3.70788771      -2.47126781
O        2.88272878       3.28459178      -1.71130598
C        1.71825053       5.15027048      -2.62666761
C        2.56143215       6.05807121      -2.11260916
C        2.35839886       7.50527125      -2.23674310
C        3.43725880       8.30724835      -2.63357573
C        3.29251575       9.69329350      -2.74434068
C        2.06752876      10.28237105      -2.44462118
O        1.90857660      11.63552069      -2.54375014
C        0.99297690       9.49457075      -2.03174631
O       -0.19758125      10.09508780      -1.72832133
C        1.13296989       8.11015670      -1.92421210
H        1.95102212       0.63499970      -0.70206911
H        0.73287671       1.94241880      -0.58860911
H       -0.49876094       0.97322094      -2.53903535
H        0.62643548      -0.37429947      -2.60520079
H        2.51252536       1.23416967      -3.17449000
H        0.59732935       3.30380630      -3.92712912
H        0.82455440       5.43423718      -3.16654300
H        3.47122800       5.74602052      -1.60258590
H        4.39978186       7.85668663      -2.86830349
H        4.14161829      10.29088717      -3.06109574
H        2.74604445      12.03455275      -2.82431735
H       -0.81352186       9.43017859      -1.38564540
H        0.29868668       7.50308303      -1.58660777
C        1.14501335       1.09190856      -4.67514761
C        0.88438148       0.76568211      -5.80655529
Br       0.46296178       0.23820152      -7.63594580
C       -0.91733867      -0.91733867      -0.91733867
C       -2.34897061      -0.86552774      -0.41079122
C       -3.27397545      -1.79639367      -1.19149223
N       -3.51235323      -1.36497370      -2.54530371
C       -2.76838949      -1.84510572      -3.58905840
O       -1.81974541      -2.60473896      -3.45414216
C       -3.23215050      -1.35424115      -4.90879696
C       -2.76987109      -1.93741712      -6.02482431
C       -3.18836305      -1.53916174      -7.37288842
C       -3.55423257      -2.53525978      -8.28859054
C       -3.93945932      -2.20058738      -9.59010324
C       -3.94670285      -0.86518339      -9.98263476
O       -4.31677600      -0.51966883     -11.25140260
C       -3.56720680       0.13188292      -9.08397009
O       -3.56763064       1.43632318      -9.49452042
C       -3.18615170      -0.19852155      -7.78266543
H       -0.49635466      -1.92471089      -0.86702538
H       -0.81564347      -0.51904400      -1.92921715
H       -2.72092029       0.16709297      -0.45966803
H       -2.36273004      -1.14585264       0.65124587
H       -2.91957012      -2.83237061      -1.16924429
H       -4.32782688      -0.79166188      -2.70877600
H       -3.94683056      -0.54228323      -4.93622080
H       -2.07650055      -2.77484836      -5.96848551
H       -3.55005531      -3.58249502      -7.99222165
H       -4.22552745      -2.99057045     -10.27750330
H       -4.53294602      -1.32243421     -11.74953431
H       -3.20790615       1.99434765      -8.78874365
H       -2.87580637       0.57945032      -7.09202143
C       -4.56164893      -1.80348001      -0.54694059
C       -5.64007546      -1.80941481      -0.00712860
Br      -7.38379995      -1.81901089       0.86570174
C       -0.91733867       0.91733867       0.91733867
C       -0.10164974       1.43227544       2.09136438
C       -0.94369123       2.25068613       3.06748399
N       -1.37041792       3.51888659       2.53332613
C       -2.59473795       3.66798896       1.93982669
O       -3.37688880       2.74636722       1.75537052
C       -2.88345540       5.06729082       1.54444239
C       -4.13332974       5.40508571       1.19369708
C       -4.52125875       6.76704172       0.81211274
C       -5.67653362       7.32393210       1.37761716
C       -6.09341041       8.61105877       1.02568075
C       -5.35970718       9.34037594       0.09443787
O       -5.75392561      10.59816893      -0.26424711
C       -4.21851936       8.78792625      -0.48715164
O       -3.52041221       9.51598281      -1.41056714
C       -3.79729756       7.50487873      -0.13483760
H       -1.75635118       0.29431385       1.23742590
H       -1.27354471       1.72108537       0.26927454
H        0.74037832       2.03294667       1.72092700
H        0.34144364       0.57789358       2.62088686
H       -1.79846367       1.67882553       3.44389582
H       -0.78456471       4.31930989       2.72439017
H       -2.07551841       5.78679619       1.56301999
H       -4.93524154       4.66908992       1.21550296
H       -6.25833922       6.76121395       2.10521881
H       -6.98751928       9.02208352       1.48399840
H       -6.56595857      10.82546056       0.21349542
H       -2.80771597       8.97064378      -1.77605760
H       -2.91794315       7.07286883      -0.60243449
C       -0.13477145       2.55910786       4.21819021
C        0.54269887       2.81741106       5.18190668
Br       1.63811108       3.23506549       6.74015469
C        0.91733867      -0.91733867       0.91733867
C        0.81047788      -2.36058311       0.45422858
C        1.59771194      -3.31588640       1.34826301
N        3.02572583      -3.16202561       1.23487920
C        3.72961349      -2.37086170       2.10207841
O        3.21014174      -1.69203862       2.97644617
C        5.19428072      -2.42211275       1.87879514
C        6.01729181      -1.90924128       2.80557943
C        7.47882375      -1.93542011       2.68616935
C        8.23932727      -2.35098715       3.78776847
C        9.63567801      -2.37106295       3.72340898
C       10.27574704      -1.96159001       2.55718395
O       11.63943108      -1.97111600       2.47730036
C        9.52811637      -1.52947672       1.46170088
O       10.17733350      -1.11778600       0.33070839
C        8.13387051      -1.51222826       1.52123991
H        0.56201756      -0.78380823       1.94226515
H        1.92899705      -0.51822070       0.81668687
H        1.15707191      -2.44159412      -0.58517068
H       -0.24735847      -2.65662117       0.44807410
H        1.28009496      -3.24701515       2.39407491
H        3.50132266      -3.75623706       0.57070504
H        5.56323809      -2.88768444       0.97441206
H        5.62126918      -1.47606186       3.72250338
H        7.74860610      -2.67123435       4.70493153
H       10.20102977      -2.70451596       4.58805546
H       12.00537691      -2.27943098       3.32010666
H        9.52962753      -0.77697938      -0.30430477
H        7.55690577      -1.15948145       0.67199027
C        1.31202202      -4.66531961       0.93472789
C        1.07275672      -5.79546992       0.58839223
Br       0.68588495      -7.62282739       0.02839677
