122
Properties=species:S:1:pos:R:3 pbc="F F F"
N        3.44504023       2.59046408      -4.26238875
C        4.57542859       2.56064039      -3.31918797
H        5.29709593       3.30478643      -3.68290018
C        4.10981545       3.00486840      -1.89173122
H        3.58510525       3.96462717      -1.99312762
C        3.17822116       2.02328087      -1.15389045
C        1.82958675       1.82958675      -1.82958675
H        1.87719630       1.31557122      -2.79087883
F        1.22079672       3.03505515      -1.98253382
N        5.27344973       3.26312095      -1.02759913
C        5.23444809       1.17019077      -3.41066729
C        6.53049972       1.04883746      -2.62497546
H        6.40529925       1.09225140      -1.54206114
F        7.39925967       2.01301918      -3.02793804
H        3.04119471       3.52955144      -4.28660549
H        3.78587396       2.41904492      -5.21030532
H        2.99763863       2.42352208      -0.14642292
H        3.67275022       1.05477192      -1.01088302
H        5.87473978       3.96829256      -1.46008279
H        4.96089124       3.67813250      -0.14761253
H        5.45914183       0.97499755      -4.46868239
H        4.53003583       0.38835462      -3.10145164
C        7.12247843      -0.23810972      -2.88368027
C        7.61826059      -1.31592798      -3.10034555
Br       8.41989843      -3.05866894      -3.45067498
N       -3.37927696      -2.62455448      -4.29406162
C       -4.54307393      -2.51339524      -3.39878779
H       -5.27943907      -3.24315590      -3.76218757
C       -4.15100891      -2.91765444      -1.93775171
H       -3.66167979      -3.90021675      -1.98096350
C       -3.20994256      -1.94391195      -1.20153798
C       -1.82958675      -1.82958675      -1.82958675
H       -1.81946459      -1.35307031      -2.81111144
F       -1.26417162      -3.06278578      -1.91142828
N       -5.35650192      -3.09601412      -1.11165377
C       -5.14180394      -1.10336443      -3.57013779
C       -6.46126749      -0.90074668      -2.84229847
H       -6.37973986      -0.90550450      -1.75436742
F       -7.35180610      -1.84610670      -3.24230409
H       -3.01277147      -3.57872472      -4.26585544
H       -3.67617556      -2.47826629      -5.26078236
H       -3.08451600      -2.31010409      -0.17296353
H       -3.67039025      -0.95210807      -1.11590684
H       -5.96846290      -3.79425744      -1.54039478
H       -5.09498232      -3.48715125      -0.20450270
H       -5.31754565      -0.94222923      -4.64304688
H       -4.41905571      -0.33749170      -3.26329468
C       -6.99076456       0.39665378      -3.17393820
C       -7.43421836       1.48322666      -3.45168647
Br      -8.15124564       3.24012311      -3.90078193
N       -3.24172493       4.34760506       2.70856306
C       -2.33251117       4.25927045       3.86347533
H       -2.87312516       4.69886824       4.71278914
C       -2.03259307       2.76236531       4.21145669
H       -2.99452108       2.24066140       4.30767756
C       -1.16995655       1.99562201       3.18981392
C       -1.82958675       1.82958675       1.82958675
H       -1.95217745       2.75945170       1.27201720
F       -3.03578650       1.22181028       1.98078891
N       -1.37766885       2.66045254       5.52604843
C       -1.10353550       5.14207234       3.56969831
C       -0.15799628       5.29590698       4.75040937
H        0.36833048       4.38111824       5.02682402
F       -0.84196197       5.77632309       5.82193184
H       -4.10612764       3.84025611       2.91096788
H       -3.52558679       5.31940047       2.57023695
H       -0.97722057       0.99324840       3.59711466
H       -0.18796963       2.47147232       3.07896321
H       -1.96519732       3.09870414       6.23921366
H       -1.30937070       1.67808818       5.79917740
H       -1.46751478       6.14170816       3.29359883
H       -0.55862232       4.76600524       2.69521453
C        0.87729121       6.23665404       4.40868615
C        1.74434449       7.02452971       4.12249295
Br       3.14629631       8.29845802       3.65974275
N        2.97403944      -4.39760258       2.92625104
C        2.31597307      -3.96782729       4.17145660
H        2.92858538      -4.36284677       4.99335039
C        2.31874337      -2.40590809       4.28176361
H        3.35067391      -2.06042763       4.13175849
C        1.41227183      -1.66085514       3.28226550
C        1.82958675      -1.82958675       1.82958675
H        1.70356255      -2.84072521       1.43935859
F        3.12200979      -1.43673792       1.67963797
N        1.93888723      -1.98487770       5.64040488
C        0.93303727      -4.64550646       4.23676242
C        0.20714858      -4.44026863       5.55689542
H       -0.11259777      -3.41320410       5.73900546
F        0.99331232      -4.86694275       6.57996183
H        3.92848029      -4.03188557       2.89698577
H        3.07482799      -5.41443077       2.92596545
H        1.45386201      -0.58960678       3.52411484
H        0.36524478      -1.96039412       3.41276627
H        2.57236359      -2.40812139       6.32263014
H        2.07369310      -0.97646277       5.73648040
H        1.08214184      -5.72522153       4.09545840
H        0.30187070      -4.31526361       3.40270778
C       -1.00539787      -5.21701240       5.55643446
C       -2.02090553      -5.86753530       5.55604840
Br      -3.66289553      -6.91937581       5.55542417
C       -0.00445707       0.01189536      -1.78238275
H       -0.66409135       0.67374010      -2.43557963
H        0.65740317      -0.63156657      -2.45157240
C       -0.90989263      -0.90692880      -0.91072765
C        0.90977584       0.90977584      -0.90977584
C       -0.00465871       1.77757030       0.00794375
H       -0.66225468       2.44313916      -0.64384735
H        0.64322798       2.43503045       0.67728295
C       -1.78241447       0.00034974      -0.00472694
H       -2.45427497      -0.65498947       0.64260836
H       -2.43311707       0.67328779      -0.65473579
C       -0.91132561       0.90220522       0.91563759
C       -0.01476271      -0.02253852       1.78660255
H       -0.67934791      -0.69751639       2.42135241
H        0.63392994       0.61504881       2.47327442
C        0.01484550      -1.77751727      -0.01636693
H        0.67870853      -2.42144646      -0.68295456
H       -0.62264859      -2.45592969       0.64226336
C        1.78714474       0.01002794       0.00389507
H        2.44202412       0.67113390       0.66197326
H        2.45385902      -0.65136977      -0.64189061
C        0.91606151      -0.90478549       0.90901405
