114
Properties=species:S:1:pos:R:3 pbc="F F F"
N        3.44504023       2.59046408      -4.26238875
C        4.57542859       2.56064039      -3.31918797
H        5.29709593       3.30478643      -3.68290018
C        4.10981545       3.00486840      -1.89173122
H        3.58510525       3.96462717      -1.99312762
C        3.17822116       2.02328087      -1.15389045
C        1.82958675       1.82958675      -1.82958675
H        1.87719630       1.31557122      -2.79087883
F        1.22079672       3.03505515      -1.98253382
N        5.27344973       3.26312095      -1.02759913
C        5.23444809       1.17019077      -3.41066729
C        6.53049972       1.04883746      -2.62497546
H        6.40529925       1.09225140      -1.54206114
Br       7.33485098      -0.69980243      -2.97649070
F        7.39925967       2.01301918      -3.02793804
H        3.04119471       3.52955144      -4.28660549
H        3.78587396       2.41904492      -5.21030532
H        2.99763863       2.42352208      -0.14642292
H        3.67275022       1.05477192      -1.01088302
H        5.87473978       3.96829256      -1.46008279
H        4.96089124       3.67813250      -0.14761253
H        5.45914183       0.97499755      -4.46868239
H        4.53003583       0.38835462      -3.10145164
N       -2.81289804      -3.10148518      -4.38350983
C       -4.02657912      -2.31124811      -4.11742973
H       -4.86438836      -2.88825020      -4.53214398
C       -4.26109228      -2.16954500      -2.57577779
H       -4.22934316      -3.17624451      -2.13727236
C       -3.24935290      -1.28452102      -1.82151856
C       -1.82958675      -1.82958675      -1.82958675
H       -1.35038924      -1.82341895      -2.80983815
F       -1.82429891      -3.09084121      -1.32324557
N       -5.61087960      -1.64727545      -2.30601476
C       -3.91720784      -0.99160880      -4.90648951
C       -5.18147130      -0.14753928      -4.87530205
H       -5.41656316       0.27371273      -3.89676135
Br      -4.95348299       1.39679537      -6.05485163
F       -6.23159221      -0.88356393      -5.32506076
H       -2.89593200      -4.01983640      -3.94158323
H       -2.74016280      -3.28989904      -5.38516236
H       -3.57867564      -1.21347391      -0.77543407
H       -3.26409176      -0.26039828      -2.21391513
H       -6.30955372      -2.25860102      -2.73496038
H       -5.79852405      -1.68589135      -1.30222087
H       -3.70361290      -1.24472446      -5.95448440
H       -3.06053825      -0.40277873      -4.55652512
N       -2.97648108       4.39751936       2.92389262
C       -2.31564024       3.97090200       4.16871471
H       -2.92754470       4.36626939       4.99096844
C       -2.31563570       2.40916557       4.28161379
H       -3.34723859       2.06172742       4.13389402
C       -1.40958617       1.66395780       3.28184851
C       -1.82958675       1.82958675       1.82958675
H       -1.70588746       2.84028362       1.43747527
F       -3.12160272       1.43434888       1.68243408
N       -1.93283091       1.99102040       5.64031851
C       -0.93372469       4.65097893       4.23060254
C       -0.20531020       4.44913513       5.54986731
H        0.11644145       3.42290540       5.73314784
Br       1.44048064       5.50726168       5.54475821
F       -0.99048485       4.87620339       6.57352866
H       -3.93036087       4.03017348       2.89681729
H       -3.07895729       5.41417730       2.92208962
H       -1.44899776       0.59304483       3.52554104
H       -0.36284288       1.96544722       3.41011506
H       -2.56587760       2.41434557       6.32289195
H       -2.06580372       0.98254434       5.73828822
H       -1.08485478       5.73020949       4.08775749
H       -0.30339365       4.32039855       3.39604989
N        3.28953956      -4.33097307       2.67738044
C        2.34545653      -4.30272778       3.80707264
H        2.87426605      -4.75150085       4.65901564
C        1.99175913      -2.82591006       4.18874588
H        2.93476163      -2.27996477       4.32813363
C        1.13649447      -2.05440374       3.16449426
C        1.82958675      -1.82958675       1.82958675
H        1.99540384      -2.73874283       1.24949968
F        3.01254787      -1.19227343       2.03356438
N        1.29678406      -2.78152648       5.48585927
C        1.15191537      -5.21128781       3.45210297
C        0.17793062      -5.42680635       4.59957566
H       -0.38279623      -4.53598302       4.88642499
Br      -1.17665996      -6.73053319       4.05766602
F        0.84481699      -5.91880625       5.67659366
H        4.13248444      -3.80528695       2.91958025
H        3.60573472      -5.28975659       2.51973289
H        0.90275432      -1.07038163       3.59444767
H        0.17251821      -2.55467704       3.01120991
H        1.87632319      -3.22360349       6.20318844
H        1.19180383      -1.80998651       5.78484594
H        1.55292103      -6.19153970       3.15836104
H        0.62140100      -4.82537367       2.57306742
C       -0.00445707       0.01189536      -1.78238275
H       -0.66409135       0.67374010      -2.43557963
H        0.65740317      -0.63156657      -2.45157240
C       -0.90989263      -0.90692880      -0.91072765
C        0.90977584       0.90977584      -0.90977584
C       -0.00465871       1.77757030       0.00794375
H       -0.66225468       2.44313916      -0.64384735
H        0.64322798       2.43503045       0.67728295
C       -1.78241447       0.00034974      -0.00472694
H       -2.45427497      -0.65498947       0.64260836
H       -2.43311707       0.67328779      -0.65473579
C       -0.91132561       0.90220522       0.91563759
C       -0.01476271      -0.02253852       1.78660255
H       -0.67934791      -0.69751639       2.42135241
H        0.63392994       0.61504881       2.47327442
C        0.01484550      -1.77751727      -0.01636693
H        0.67870853      -2.42144646      -0.68295456
H       -0.62264859      -2.45592969       0.64226336
C        1.78714474       0.01002794       0.00389507
H        2.44202412       0.67113390       0.66197326
H        2.45385902      -0.65136977      -0.64189061
C        0.91606151      -0.90478549       0.90901405
