181
Properties=species:S:1:pos:R:3 pbc="F F F"
C        0.00000000       0.00000000       0.00000000
C        0.92946265       0.92946265      -0.92946265
H        1.19340238       1.77377885      -0.28286791
C        2.12463089       0.17426869      -1.32347728
N        3.07763609      -0.41565266      -1.62704325
C        0.08875822       1.38592245      -2.12195294
S        0.93485865       2.68275537      -3.09523023
C       -0.42863548       3.13569119      -4.23301106
C       -0.13900320       4.27894946      -5.23497365
H       -1.04778087       4.33591011      -5.85039782
C        0.00531002       5.70682125      -4.60225179
H       -0.92591688       5.89340529      -4.04974303
N        1.06065161       5.82480218      -3.58678759
C        2.40540608       5.68755607      -3.82805127
O        2.88212302       5.48227060      -4.94111070
C        3.26119426       5.79082016      -2.59192460
C        0.11952800       6.77997342      -5.70972892
S        0.08914040       8.49267251      -5.05084509
C        0.40135119       9.37806828      -6.62793752
C        0.68176522      10.86799894      -6.43376419
H       -0.00546753      11.32091393      -5.71143471
C        0.58492300      11.57216984      -7.72035246
N        0.48113079      12.11161760      -8.74220258
N        0.96148546       3.94129558      -6.13617286
C        0.78930606       3.82793992      -7.49494423
O       -0.30270164       3.91516617      -8.04734028
C        2.06726018       3.62147064      -8.25844448
H       -0.85776577       1.81103356      -1.76941769
H       -0.14522050       0.54765992      -2.78822114
H       -1.30116156       3.40462790      -3.62820719
H       -0.67946037       2.23078208      -4.79891764
H        0.76097700       5.95601969      -2.62941401
H        2.67783542       5.60853887      -1.68385019
H        3.70493208       6.78830428      -2.53919344
H        4.04951183       5.03482888      -2.63914645
H       -0.71856014       6.68132624      -6.40659208
H        1.05037327       6.66082120      -6.27673516
H       -0.49762904       9.24166502      -7.24092896
H        1.23352551       8.89211429      -7.15083759
H        1.90875498       4.09354054      -5.78216328
H        2.68127336       2.85712151      -7.77533727
H        2.61776023       4.56474207      -8.30911050
H        1.83357809       3.28739162      -9.27345336
C        2.00041175      11.05967059      -5.88783991
C        3.10477822      11.22019558      -5.43062833
Br       4.89044539      11.47975093      -4.69135588
C       -0.92946265      -0.92946265      -0.92946265
H       -1.66297078      -1.35283974      -0.23423862
C       -1.58524915      -0.09442680      -1.94270091
N       -2.11576030       0.56471410      -2.73798047
C       -0.04390097      -2.01973995      -1.53299269
S       -1.03024778      -3.31258659      -2.37000987
C        0.30303392      -4.51921033      -2.72389034
C       -0.12537980      -5.83740423      -3.41213588
H        0.81961563      -6.37030160      -3.58784108
C       -0.97551810      -6.81299536      -2.52586960
H       -0.37506716      -7.01420203      -1.62796225
N       -2.22509688      -6.24012548      -2.00701902
C       -3.29307813      -5.85072587      -2.77720942
O       -3.33464948      -5.97225028      -3.99860456
C       -4.42032311      -5.23314836      -1.99046754
C       -1.19370773      -8.15738520      -3.25813741
S       -2.00704960      -9.42104720      -2.20456120
C       -2.20086101     -10.72835143      -3.47814455
C       -3.07708399     -11.89180522      -3.01463914
H       -2.84058838     -12.19653815      -1.98975457
C       -2.91813416     -13.03687334      -3.92243780
N       -2.76051268     -13.93606656      -4.63837174
N       -0.72284150      -5.59239199      -4.72372041
C       -0.16160603      -6.06464918      -5.88593500
O        0.91631974      -6.64913273      -5.92699182
C       -1.00339894      -5.83430020      -7.10947616
H        0.53151151      -2.51282986      -0.74136713
H        0.66613219      -1.60125705      -2.25553570
H        0.80577178      -4.75701634      -1.78042896
H        1.02672303      -4.00763514      -3.36932723
H       -2.26912005      -6.06591137      -1.01137929
H       -4.07955014      -4.87783696      -1.01283738
H       -5.21193896      -5.97310191      -1.84738892
H       -4.81026710      -4.37262491      -2.54059515
H       -0.22892145      -8.56555041      -3.57488631
H       -1.81602190      -8.02136376      -4.15054398
H       -1.19031897     -11.08713499      -3.70751099
H       -2.60604586     -10.27830125      -4.39213028
H       -1.71243788      -5.33482960      -4.73719131
H       -1.37903865      -4.80802845      -7.12666505
H       -1.84037660      -6.53774218      -7.11349403
H       -0.39496168      -5.99538136      -8.00408003
C       -4.46110022     -11.49483419      -2.99198784
C       -5.62021381     -11.16237095      -2.97301738
Br      -7.49440245     -10.62480601      -2.94234374
C       -0.92946265       0.92946265       0.92946265
H       -1.57857893       0.21860581       1.45286439
C       -0.08207939       1.66425256       1.87604491
N        0.58380496       2.23791087       2.63492076
C       -1.73796522       1.84680248       0.01186590
S       -3.04486999       2.74320008       0.92477417
C       -3.92376275       3.50686549      -0.49056148
C       -5.17745483       4.34798624      -0.15052116
H       -5.49854370       4.75822189      -1.11823854
C       -6.41326232       3.53316162       0.36795912
H       -6.63709434       2.78794510      -0.40780800
N       -6.16028047       2.73597553       1.57598538
C       -5.85711871       3.25217432       2.81172039
O       -5.79718757       4.45476706       3.05354969
C       -5.57935413       2.20516736       3.85941753
C       -7.64788027       4.45371342       0.50763665
S       -9.18244194       3.53373654       0.91647953
C      -10.29440740       4.97739947       1.13555013
C      -11.65327367       4.60329928       1.72695540
H      -12.06252834       3.69803400       1.26631877
C      -12.59962045       5.71584396       1.56198090
N      -13.33639228       6.59745602       1.40110267
N       -4.84767733       5.48780825       0.70346833
C       -5.02907704       6.78758917       0.29552400
O       -5.39682137       7.09644306      -0.83345963
C       -4.77090995       7.80737287       1.36889248
H       -2.23383216       1.25362157      -0.76476825
H       -1.09368206       2.58152507      -0.48454657
H       -4.20767478       2.70912376      -1.18512502
H       -3.19825993       4.15196640      -0.99998699
H       -6.15012342       1.73029941       1.46598787
H       -5.32118538       1.24283887       3.40620023
H       -6.46273401       2.07908719       4.49060860
H       -4.72968397       2.52566786       4.46813532
H       -7.82276018       4.98157499      -0.43497699
H       -7.49217092       5.20199830       1.29376042
H      -10.42633043       5.41839704       0.14023748
H       -9.79113779       5.72310237       1.76223723
H       -4.77347153       5.30421960       1.70676766
H       -3.83852910       7.58226300       1.89294005
H       -5.60462920       7.81078715       2.07619645
H       -4.68203936       8.79822168       0.91416203
C      -11.52007531       4.29959796       3.12824898
C      -11.40852169       4.04524810       4.30183236
Br     -11.22814891       3.63398588       6.19941741
C        0.92946265      -0.92946265       0.92946265
H        0.26884980      -1.74988708       1.23131226
C        2.05892698      -1.42773192       0.13571796
N        2.94709517      -1.83417698      -0.49224548
C        1.36533007      -0.09637276       2.13493078
S        2.17897863      -1.12114255       3.41272307
C        2.31890771       0.12660961       4.74776866
C        2.93450073      -0.35813994       6.08227924
H        2.98474945       0.54815583       6.70193344
C        2.05029770      -1.35739996       6.90668540
H        1.09062279      -0.85003064       7.07657801
N        1.68883488      -2.59002772       6.19337877
C        2.57713664      -3.55556053       5.78831625
O        3.78397628      -3.51010931       6.01141872
C        1.94261184      -4.68416438       5.01716279
C        2.68932325      -1.63214699       8.28776010
S        1.61284854      -2.63312532       9.38668414
C        2.79027495      -2.83735057      10.77973147
C        2.31319782      -3.84511434      11.82521620
H        1.25069002      -3.71824661      12.05794449
C        3.10975932      -3.71410841      13.05357758
N        3.73548068      -3.57841440      14.02105588
N        4.30821073      -0.82580952       5.90493365
C        5.37617062      -0.21680950       6.51921009
O        5.27709070       0.80630689       7.18902100
C        6.68243166      -0.93539420       6.32934944
H        0.49012544       0.36932735       2.60188738
H        2.05471473       0.70249126       1.83843709
H        1.31953939       0.53014856       4.94228269
H        2.93795179       0.94095385       4.35324140
H        0.71778871      -2.69794235       5.93067964
H        0.97055976      -4.39284281       4.60682191
H        1.81013461      -5.54573333       5.67656186
H        2.59119644      -4.95310531       4.17918541
H        2.88785529      -0.68416948       8.79733340
H        3.64023779      -2.16730863       8.18038321
H        2.90200217      -1.84661796      11.23634481
H        3.76882740      -3.12798744      10.37966255
H        4.42776235      -1.78516820       5.57152824
H        6.81373618      -1.21821732       5.28177865
H        6.70286396      -1.82713683       6.96161201
H        7.50532972      -0.27389124       6.61520211
C        2.44212190      -5.18696333      11.31883702
C        2.55009582      -6.31076186      10.89474446
Br       2.72468050      -8.12784903      10.20902267
