189
Properties=species:S:1:pos:R:3 pbc="F F F"
C        0.00000000       0.00000000       0.00000000
C        0.92981921       0.92981921      -0.92981921
H        0.61636453       1.95139245      -0.69062920
C        2.33694010       0.70753968      -0.57362630
N        3.45151764       0.53145501      -0.29524164
C        0.63238754       0.57954087      -2.38743255
S        1.41726338       1.75640787      -3.54973586
C        0.96683495       0.92384118      -5.12459648
C        1.47966611       1.70261136      -6.35295730
H        2.56485306       1.83434312      -6.25179258
N        0.93458858       3.05271481      -6.47277821
C       -0.40814778       3.31764114      -6.61123173
O       -1.28612182       2.46096069      -6.57373574
C       -0.73227351       4.76578881      -6.85990903
C        1.22429719       0.99118387      -7.58332328
C        1.01382239       0.40482191      -8.59740053
C        0.77189314      -0.26915957      -9.76301092
C        0.56141835      -0.85552154     -10.77708817
C        0.30604943      -1.56694903     -12.00745415
H       -0.32110064      -2.43803608     -11.78071405
N       -0.41737238      -0.71160040     -12.93268492
C       -1.78733376      -0.73592979     -13.02039572
O       -2.49181778      -1.54671755     -12.42759660
C       -2.37057360       0.29975876     -13.94304187
C        1.60575272      -2.10325786     -12.64418316
S        2.74690062      -0.77385084     -13.21057577
C        4.14783538      -1.78979620     -13.82360140
C        3.86334690      -2.63455188     -15.06785829
H        2.99784893      -3.28599911     -14.92223687
C        5.03636299      -3.45274342     -15.40530860
N        5.96546107      -4.10350608     -15.64525645
Br       3.40834744      -1.49341043     -16.59993742
H       -0.44698644       0.61208851      -2.57470319
H        0.98435117      -0.43137856      -2.62463879
H       -0.11997532       0.79773618      -5.14999742
H        1.41342377      -0.07721584      -5.11189892
H        1.59148720       3.81985214      -6.45740698
H        0.13194123       5.41285132      -6.68945814
H       -1.53536295       5.07403618      -6.18544717
H       -1.05909475       4.88133614      -7.89760509
H        0.09097482       0.08063922     -13.30617593
H       -1.59548358       0.91617781     -14.40626161
H       -3.04221042       0.94882232     -13.37512110
H       -2.92849123      -0.20732039     -14.73526207
H        1.34014287      -2.70851665     -13.51649564
H        2.14187003      -2.73917862     -11.93094964
H        4.47523169      -2.42830629     -12.99387674
H        4.97372271      -1.09437128     -14.01753202
C       -0.92981921      -0.92981921      -0.92981921
H       -1.68859722      -0.24576223      -1.32402672
C       -0.11181270      -1.49682672      -2.00946665
N        0.53408471      -1.94885921      -2.86343978
C       -1.55315425      -2.00540849      -0.04079823
S       -2.84770668      -2.95624811      -0.91945232
C       -3.21167798      -4.19321609       0.38962145
C       -4.32203667      -5.17366405      -0.03953404
H       -4.02050328      -5.64784653      -0.98263895
N       -5.60561996      -4.53477765      -0.31968399
C       -6.31663736      -3.82113329       0.61704556
O       -5.91561946      -3.58574925       1.75279410
C       -7.67574519      -3.37144071       0.15376157
C       -4.52832606      -6.21248902       0.94201074
C       -4.69835229      -7.06869724       1.75100471
C       -4.89378678      -8.05284639       2.68088868
C       -5.06381302      -8.90905460       3.48988265
C       -5.27010241      -9.94787958       4.47142743
H       -4.67385544      -9.70831785       5.36059595
N       -6.66986388      -9.99220631       4.85835805
C       -7.13830622      -9.31716748       5.95834153
O       -6.41287681      -8.73305856       6.75687409
C       -8.63105602      -9.37849014       6.13731912
C       -4.78791743     -11.32391008       3.96514948
S       -5.75961646     -11.96060665       2.53659756
C       -4.86138823     -13.52754990       2.20729756
C       -4.98160436     -14.60389575       3.28884680
H       -4.67592285     -14.22600773       4.26784388
C       -4.15825257     -15.76963467       2.93895906
N       -3.48904217     -16.67271716       2.65454789
Br      -6.84863563     -15.17256948       3.50633068
H       -2.02693665      -1.54827799       0.83540938
H       -0.78917601      -2.70561654       0.31718114
H       -3.47656798      -3.65779958       1.30660929
H       -2.28806128      -4.74901376       0.58896819
H       -5.97935646      -4.63688975      -1.25250010
H       -7.80527216      -3.50581015      -0.92316838
H       -7.80183371      -2.31146498       0.38917828
H       -8.43835852      -3.95713278       0.67564483
H       -7.32367910     -10.30534296       4.15123209
H       -9.11266930      -9.96347272       5.34918618
H       -9.03671795      -8.36360050       6.11858545
H       -8.85216886      -9.84749232       7.10021073
H       -4.88334403     -12.04642933       4.78165151
H       -3.73390326     -11.27041858       3.67068079
H       -3.80845915     -13.27051919       2.03817619
H       -5.24021755     -13.90696390       1.25029800
C       -0.92981921       0.92981921       0.92981921
H       -1.69160210       0.24679042       1.31999365
C       -0.11325747       1.49152258       2.01332603
N        0.53150706       1.93936275       2.87035859
C       -1.54766234       2.00962354       0.04207508
S       -2.84201018       2.96162595       0.91977098
C       -3.19886646       4.20325393      -0.38684778
C       -4.30768206       5.18560306       0.04194964
H       -4.00746640       5.65630768       0.98721468
N       -5.59382109       4.54953065       0.31672986
C       -6.30420336       3.84049365      -0.62397191
O       -5.90066824       3.60715778      -1.75925141
C       -7.66585086       3.39331401      -0.16574054
C       -4.50832654       6.22773490      -0.93725710
C       -4.67370020       7.08666865      -1.74432403
C       -4.86378689       8.07395062      -2.67199301
C       -5.02916055       8.93288437      -3.47905994
C       -5.22980503       9.97501620      -4.45826668
H       -4.63174376       9.73626877      -5.34643519
N       -6.62834961      10.02433733      -4.84897480
C       -7.09559436       9.35368241      -5.95214460
O       -6.36956627       8.76977630      -6.75028129
C       -8.58766082       9.41967937      -6.13511315
C       -4.74520167      11.34827498      -3.94679862
S       -5.71911307      11.98369981      -2.51918733
C       -4.81744213      13.54719975      -2.18300130
C       -4.93162963      14.62689035      -3.26186667
H       -4.62426612      14.25088105      -4.24106048
C       -4.10601124      15.78934111      -2.90642417
N       -3.43508255      16.68975129      -2.61762240
Br      -6.79645171      15.20138878      -3.48296607
H       -2.02026523       1.55626598      -0.83672595
H       -0.78073555       2.70868767      -0.31181182
H       -3.46268289       3.67114041      -1.30606502
H       -2.27314901       4.75701977      -0.58206193
H       -5.96987913       4.65008537       1.24878182
H       -7.79801441       3.52504071       0.91119557
H       -7.79423659       2.33435591      -0.40447210
H       -8.42536469       3.98259045      -0.68810866
H       -7.28326424      10.33732793      -4.14280221
H       -9.06984317      10.00380614      -5.34669346
H       -8.99620294       8.40588012      -6.12035005
H       -8.80477029       9.89198228      -7.09730213
H       -4.83632819      12.07333308      -4.76153942
H       -3.69216862      11.29101420      -3.64954178
H       -3.76571129      13.28675403      -2.01166318
H       -5.19788708      13.92500099      -1.22600462
C        0.92981921      -0.92981921       0.92981921
H        0.39718626      -1.88547193       0.97572798
C        2.24356045      -1.08268224       0.29186339
N        3.28498541      -1.20308636      -0.20985748
C        1.02035637      -0.27243387       2.30657072
S        1.81760398      -1.36729290       3.53851024
C        1.87146429      -0.19304091       4.95076742
C        2.49182169      -0.83522608       6.20818699
H        3.48902505      -1.21370088       5.94826283
N        1.75631159      -1.99318359       6.71058642
C        0.44991513      -1.93353142       7.13727854
O       -0.25047362      -0.92793535       7.07111288
C       -0.06285966      -3.21062259       7.74566140
C        2.63735345       0.11990412       7.28135501
C        2.75730365       0.90712737       8.16586853
C        2.89517476       1.81198546       9.18255520
C        3.01512496       2.59920871      10.06706872
C        3.16065672       3.55433891      11.14023674
H        2.66287290       4.48631461      10.84501905
N        2.51479575       3.05192838      12.34084476
C        1.22226400       3.38632252      12.66119069
O        0.56060475       4.21257937      12.04103590
C        0.67870759       2.68000922      13.87352867
C        4.64078355       3.90118254      11.40707702
S        5.62475861       2.47796766      12.03683460
C        7.28149724       3.25944798      12.15959132
C        7.42554829       4.35135954      13.22246456
H        6.67765595       5.13810400      13.09453474
C        8.76909243       4.94353701      13.16337275
N        9.82783849       5.41036065      13.08973359
Br       7.11806625       3.62346654      15.02027472
H        0.01837140      -0.03782104       2.68361282
H        1.58766922       0.66432872       2.25427090
H        0.85536419       0.16703223       5.13942632
H        2.47400198       0.66980652       4.64391140
H        2.24874359      -2.87439644       6.74560628
H        0.61637876      -4.04856366       7.56930826
H       -1.03398912      -3.45222504       7.30588448
H       -0.17321563      -3.06826564       8.82479647
H        2.94403184       2.24716590      12.78092402
H        1.41446444       2.00236604      14.31485745
H       -0.20322905       2.10148780      13.58644985
H        0.40313140       3.42696363      14.62328267
H        4.68052362       4.69347466      12.16107290
H        5.11383419       4.27061035      10.49041721
H        7.52941022       3.65587203      11.16726396
H        7.99402167       2.44752349      12.35038527
