138
Properties=species:S:1:pos:R:3 pbc="F F F"
C        1.82586531       1.82586531      -1.82586531
N        0.95147057       2.58127671      -2.69122073
C        1.59346376       3.55318763      -3.47422110
N        2.91640950       3.75654849      -3.26165480
C        3.56216155       4.66565140      -4.01897065
C        2.95860670       5.37671584      -5.03550408
C        1.61186849       5.14082744      -5.27591056
C        0.87217008       4.24789454      -4.47548129
C       -0.56760622       4.00957603      -4.76982570
C       -1.00880155       2.69128863      -5.00402632
C       -2.33290561       2.42022631      -5.32295159
C       -3.19691702       3.48636510      -5.42155772
N       -2.82778838       4.76788473      -5.21990524
C       -1.53499206       5.03583216      -4.90354405
N       -1.22659262       6.37393402      -4.60869769
C       -2.09654772       7.32296152      -5.26897595
Br      -1.02749074       8.92404172      -5.60917040
H        2.46926938       1.14288538      -2.39076520
H        2.41290066       2.44160174      -1.13855077
H        0.17395016       2.99911612      -2.19005660
H        4.61375025       4.80187826      -3.78685030
H        3.52319687       6.08189418      -5.63147218
H        1.14007824       5.65261364      -6.11362116
H       -0.30975257       1.85932994      -4.93353380
H       -2.67285105       1.40489706      -5.48937738
H       -4.24381350       3.33936131      -5.67083764
H       -0.26364416       6.60373007      -4.80288892
H       -2.93573642       7.62751485      -4.63919754
H       -2.43704662       7.01285589      -6.26304565
C       -1.82586531      -1.82586531      -1.82586531
N       -1.04990185      -2.18505018      -2.98901597
C       -1.66312894      -3.11597659      -3.84176696
N       -2.83996716      -3.65474997      -3.43989565
C       -3.46252832      -4.53132211      -4.25293317
C       -2.98835653      -4.88251927      -5.49995081
C       -1.80125393      -4.30201962      -5.92533295
C       -1.07601426      -3.42723805      -5.09229360
C        0.18706610      -2.81294568      -5.58591594
C        0.30961305      -1.40853677      -5.58758967
C        1.45045802      -0.78507512      -6.07565521
C        2.45101835      -1.58586698      -6.57615716
N        2.38297225      -2.93249385      -6.61047998
C        1.27086138      -3.54528500      -6.12996052
N        1.29282005      -4.94926397      -6.09959517
C        2.14779304      -5.53249862      -7.11068418
Br       1.34561879      -7.24510416      -7.60623601
H       -2.69753423      -1.21694169      -2.08844403
H       -2.11372652      -2.67701638      -1.20231026
H       -0.11407469      -2.49795872      -2.75108947
H       -4.38813792      -4.94703354      -3.86730735
H       -3.53406864      -5.57556545      -6.12692914
H       -1.44871953      -4.52647187      -6.93112164
H       -0.49636692      -0.78816503      -5.19857923
H        1.54819517       0.29402502      -6.06364358
H        3.36618769      -1.15775653      -6.97481661
H        0.37095581      -5.35472567      -6.15920496
H        3.15113743      -5.74687035      -6.73524306
H        2.18620878      -4.97314336      -8.05192033
C       -1.82586531       1.82586531       1.82586531
N       -3.09581723       1.15529260       1.97285818
C       -3.98205472       1.76334845       2.87546933
N       -3.52594664       2.82506250       3.58360365
C       -4.36576994       3.44337120       4.43764245
C       -5.68675177       3.08141948       4.60265536
C       -6.16237265       2.01652742       3.84970643
C       -5.31351247       1.29428729       2.98774615
C       -5.86048685       0.16558462       2.18572405
C       -5.71411399       0.18861316       0.78378625
C       -6.24202171      -0.81899941      -0.01275000
C       -6.93069639      -1.83253354       0.61284296
N       -7.11161739      -1.89937882       1.94776301
C       -6.59289095      -0.91820317       2.72969636
N       -6.72567295      -1.08726026       4.11762641
C       -7.87908261      -1.87625462       4.49256176
Br      -8.48237325      -1.20244637       6.22579450
H       -1.92637023       2.77962680       1.29692292
H       -1.27752784       1.95178265       2.76374268
H       -2.99239982       0.17128967       2.19943339
H       -3.93739044       4.27130558       4.99378279
H       -6.32961314       3.62132438       5.28562571
H       -7.21802777       1.76017688       3.92810838
H       -5.17618017       1.00413255       0.30279845
H       -6.11678032      -0.80635939      -1.08899753
H       -7.36946722      -2.64739044       0.04430867
H       -6.73646077      -0.21106630       4.61758035
H       -7.63543380      -2.93259953       4.62814171
H       -8.74913449      -1.74926441       3.83898483
C        1.82586531      -1.82586531       1.82586531
N        3.11488544      -1.18356541       1.92551716
C        4.00824451      -1.79139221       2.82123577
N        3.54429545      -2.82408935       3.56622798
C        4.38981875      -3.44218725       4.41477760
C        5.72283274      -3.10915136       4.53884250
C        6.20525087      -2.07484290       3.74851273
C        5.35300944      -1.35284338       2.88969309
C        5.90706491      -0.25771270       2.04701791
C        5.72553694      -0.31095455       0.65002190
C        6.25774927       0.66376260      -0.18371436
C        6.98596159       1.67475622       0.39980043
N        7.20141683       1.76931573       1.72790050
C        6.67865729       0.82043997       2.54616682
N        6.84978167       1.01962114       3.92587856
C        8.03082813       1.78865885       4.25322048
Br       8.66037309       1.14217426       5.98752256
H        1.89019535      -2.79431426       1.31841034
H        1.29802029      -1.91549621       2.77953667
H        3.04089367      -0.19212144       2.13010776
H        3.95546548      -4.24560028       5.00141305
H        6.36917228      -3.64814941       5.21924154
H        7.26840418      -1.84287155       3.79503730
H        5.15633409      -1.12429003       0.20248706
H        6.10564915       0.62824375      -1.25598200
H        7.43007758       2.46454325      -0.19914888
H        6.85177789       0.15575496       4.44695190
H        7.81618402       2.85367416       4.36846611
H        8.88112315       1.62443775       3.58216952
C       -0.00445707       0.01189536      -1.78238275
H       -0.66409135       0.67374010      -2.43557963
H        0.65740317      -0.63156657      -2.45157240
C       -0.90989263      -0.90692880      -0.91072765
C        0.90977584       0.90977584      -0.90977584
C       -0.00465871       1.77757030       0.00794375
H       -0.66225468       2.44313916      -0.64384735
H        0.64322798       2.43503045       0.67728295
C       -1.78241447       0.00034974      -0.00472694
H       -2.45427497      -0.65498947       0.64260836
H       -2.43311707       0.67328779      -0.65473579
C       -0.91132561       0.90220522       0.91563759
C       -0.01476271      -0.02253852       1.78660255
H       -0.67934791      -0.69751639       2.42135241
H        0.63392994       0.61504881       2.47327442
C        0.01484550      -1.77751727      -0.01636693
H        0.67870853      -2.42144646      -0.68295456
H       -0.62264859      -2.45592969       0.64226336
C        1.78714474       0.01002794       0.00389507
H        2.44202412       0.67113390       0.66197326
H        2.45385902      -0.65136977      -0.64189061
C        0.91606151      -0.90478549       0.90901405
