138
Properties=species:S:1:pos:R:3 pbc="F F F"
O        2.39525738       9.96547706       2.87648551
C        3.44040793       9.35093172       2.66955653
N        3.88462046       8.13475989       3.01124019
N        2.84189554       7.08814810       3.21059150
C        2.38367175       6.49076927       1.92912403
H        2.63306635       7.07559202       1.03628243
C        2.84983748       5.02313097       1.75950481
C        2.60657169       4.40436324       0.35143312
C        3.05881262       2.93284776       0.30310555
C        3.11811658       2.25434700      -1.08554443
C        1.83746638       1.83746638      -1.83746638
H        2.12235626       1.14150174      -2.63763409
N        1.03530782       2.93165166      -2.36169683
N        1.67929777       3.53894240      -3.56994102
C        1.75792867       4.87033439      -3.48098339
O        2.18602573       5.64940847      -4.33744973
H        4.25703154       9.86930169       2.14019389
H        2.37247156       4.38464620       2.51501717
H        3.92943077       4.97487214       1.95764629
H        3.16590762       4.98304399      -0.39281847
H        1.54673311       4.46040804       0.08799937
H        2.45236014       2.33879796       0.99459873
H        4.08212569       2.89196867       0.70262591
H        3.69725343       1.33023304      -0.93825565
H        3.73895295       2.87576408      -1.74396609
H        1.40226708       5.25897347      -2.50795526
C        0.94449724       6.50059700       1.97687498
C       -0.26081141       6.50882772       2.01686640
Br      -2.20969355       6.52213611       2.08152915
O        3.61583068      -3.86285862      -9.23722099
C        3.22103999      -4.79893994      -8.54388318
N        3.37546468      -5.12841966      -7.25518517
N        3.58529996      -3.99527236      -6.30947973
C        2.31147093      -3.33484515      -5.92194277
H        1.46272241      -3.55571983      -6.57937853
C        1.93175238      -3.60138480      -4.44383122
C        0.50496768      -3.13707584      -4.02739364
C        0.24622504      -3.40234442      -2.53243544
C       -1.20394356      -3.23162357      -2.02244088
C       -1.83746638      -1.83746638      -1.83746638
H       -2.73559721      -1.95009770      -1.21579719
N       -2.14228494      -1.12060709      -3.06576428
N       -3.34715199      -1.70002272      -3.74100648
C       -3.12673558      -1.94634262      -5.03616825
O       -3.94022970      -2.37072024      -5.86193400
H        2.65615229      -5.61053683      -9.03175481
H        2.66648480      -3.13441943      -3.77416595
H        1.99308107      -4.68239043      -4.25734727
H       -0.23483094      -3.67900132      -4.62793783
H        0.37765853      -2.06953641      -4.22726391
H        0.93794218      -2.80644592      -1.92805564
H        0.51384779      -4.45015950      -2.33515673
H       -1.22638475      -3.70847532      -1.03088206
H       -1.86181758      -3.84852039      -2.64834515
H       -2.08229535      -1.74554012      -5.34136034
C        2.53175896      -1.92053703      -6.07944119
C        2.71625018      -0.73605399      -6.21134611
Br       3.01455689       1.17915491      -6.42462521
O      -10.57038322      -1.24993156       0.16379726
C      -10.14353911      -1.33587619       1.31412021
N       -9.10668484      -1.97223851       1.87369383
N       -7.92471567      -2.19929438       0.99403086
C       -7.05231622      -1.00023286       0.89323363
H       -7.52305310      -0.06335217       1.21267501
C       -5.69412420      -1.19359477       1.61293421
C       -4.82208335       0.08937346       1.74804500
C       -3.47694067      -0.21991322       2.43152737
C       -2.60847223       0.98414366       2.86539212
C       -1.83746638       1.83746638       1.83746638
H       -1.09007635       2.43224778       2.37916797
N       -2.65796626       2.68454709       0.98614296
N       -3.17578679       3.86768813       1.74470627
C       -4.49405983       4.02537439       1.58981223
O       -5.19310167       4.93574893       2.04403333
H      -10.71758819      -0.85477711       2.12332826
H       -5.10547124      -1.97124922       1.10787856
H       -5.88717227      -1.56812663       2.62761099
H       -5.37044049       0.83144067       2.33988892
H       -4.62988852       0.52543690       0.76381637
H       -2.89615560      -0.90629950       1.80670328
H       -3.69864279      -0.77892512       3.35175077
H       -1.84910002       0.57054006       3.54610204
H       -3.22383295       1.64147587       3.49337430
H       -4.95808483       3.21543420       0.99567678
C       -6.79230919      -0.81337219      -0.51071773
C       -6.57455330      -0.65687638      -1.68652700
Br      -6.22246044      -0.40383589      -3.58771114
O       -4.26113333      -6.28229469       7.46308757
C       -3.56489841      -6.96930991       6.71737162
N       -3.42197952      -7.04218758       5.38793210
N       -3.69892572      -5.78917231       4.62920555
C       -2.54502687      -4.85245916       4.63788470
H       -1.79523066      -5.05677922       5.41082738
C       -1.86864067      -4.73282807       3.24927624
C       -0.52134731      -3.95238915       3.22845996
C        0.04125865      -3.84886130       1.79843488
C        1.48889179      -3.32725656       1.64185967
C        1.83746638      -1.83746638       1.83746638
H        2.83266666      -1.66029109       1.40853434
N        1.76828445      -1.35316651       3.20720535
N        2.93306297      -1.84483797       4.01028025
C        2.54931534      -2.39208448       5.16784663
O        3.27891762      -2.83369838       6.06026794
H       -2.93487899      -7.75542832       7.16559001
H       -2.55832355      -4.26945065       2.53097348
H       -1.66831330      -5.74450189       2.87046804
H        0.20088677      -4.47250301       3.86838030
H       -0.65765857      -2.94510668       3.63169368
H       -0.64538627      -3.26770794       1.17423771
H        0.03794946      -4.86190941       1.37160958
H        1.78173258      -3.57389337       0.61011617
H        2.14366860      -3.93897828       2.27603624
H        1.44937558      -2.44313688       5.27668335
C       -3.08140881      -3.56252171       4.98710636
C       -3.53062868      -2.48219909       5.27957951
Br      -4.25697922      -0.73540878       5.75248385
C       -0.00445707       0.01189536      -1.78238275
H       -0.66409135       0.67374010      -2.43557963
H        0.65740317      -0.63156657      -2.45157240
C       -0.90989263      -0.90692880      -0.91072765
C        0.90977584       0.90977584      -0.90977584
C       -0.00465871       1.77757030       0.00794375
H       -0.66225468       2.44313916      -0.64384735
H        0.64322798       2.43503045       0.67728295
C       -1.78241447       0.00034974      -0.00472694
H       -2.45427497      -0.65498947       0.64260836
H       -2.43311707       0.67328779      -0.65473579
C       -0.91132561       0.90220522       0.91563759
C       -0.01476271      -0.02253852       1.78660255
H       -0.67934791      -0.69751639       2.42135241
H        0.63392994       0.61504881       2.47327442
C        0.01484550      -1.77751727      -0.01636693
H        0.67870853      -2.42144646      -0.68295456
H       -0.62264859      -2.45592969       0.64226336
C        1.78714474       0.01002794       0.00389507
H        2.44202412       0.67113390       0.66197326
H        2.45385902      -0.65136977      -0.64189061
C        0.91606151      -0.90478549       0.90901405
