130
Properties=species:S:1:pos:R:3 pbc="F F F"
C        1.84415690       1.84415690      -1.84415690
C        3.17312171       1.15936727      -2.09592025
C        4.05161695       1.85405989      -3.17752134
H        3.49986926       1.82786800      -4.12921576
C        4.33251283       3.43550964      -2.86973584
H        5.05139347       3.76588886      -3.63423015
N        3.06855615       4.28282584      -2.95722882
N        3.32044612       5.75721759      -3.17381926
C        2.19610988       6.47256976      -3.09511261
O        2.06356374       7.70039826      -3.13922719
C        4.99942955       3.59445258      -1.47503235
C        5.44322382       5.01488522      -1.17591425
Br       6.56588114       5.05188049       0.45283765
N        5.35029620       1.05374619      -3.33208714
N        5.12678602      -0.33922404      -3.92030417
C        6.26128518      -1.03845418      -4.00328980
O        6.41591708      -2.19729096      -4.40438669
H        1.93402881       2.76770806      -1.27045061
H        1.26842649       2.00123929      -2.75962486
H        2.97512188       0.12613343      -2.41053880
H        3.72925532       1.07086916      -1.15345908
H        1.30404725       5.83474822      -2.97309573
H        5.87088332       2.93101730      -1.42065844
H        4.31418655       3.27140338      -0.68200895
H        4.61291882       5.67987473      -0.92945573
H        6.06352782       5.44384492      -1.96678798
H        7.13174094      -0.46198790      -3.65501024
C       -1.84415690      -1.84415690      -1.84415690
C       -1.38896680      -3.28734637      -1.75209605
C       -2.36328898      -4.30495599      -2.41495321
H       -3.32611992      -4.24524241      -1.88559070
C       -2.69424844      -3.96373893      -3.97977094
H       -3.28640905      -4.81285457      -4.35224885
N       -3.49143074      -2.67484088      -4.14233919
N       -4.23495425      -2.56312740      -5.45340132
C       -4.79336451      -1.36071332      -5.60971443
O       -5.39321126      -0.91574927      -6.59422866
C       -1.37508393      -3.89530428      -4.79852626
C       -1.59829591      -3.74348702      -6.29224037
Br       0.10371503      -4.00099709      -7.26764193
N       -1.78400066      -5.71359429      -2.23853458
N       -1.75780532      -6.17004807      -0.78001276
C       -1.20705273      -7.37841410      -0.64065397
O       -1.01242913      -8.01273744       0.40215376
H       -1.72049436      -1.41304502      -2.83864810
H       -2.86098282      -1.69614478      -1.47216305
H       -1.27428920      -3.54632386      -0.69118106
H       -0.38384416      -3.38746367      -2.18227573
H       -4.67067216      -0.72492499      -4.71629405
H       -0.79672992      -4.80908558      -4.61674355
H       -0.75198004      -3.06078552      -4.45483332
H       -1.90741815      -2.73613976      -6.57869137
H       -2.28328570      -4.49116476      -6.69971027
H       -0.90611859      -7.81236735      -1.60627733
C       -1.84415690       1.84415690       1.84415690
C       -3.24294538       1.26453165       1.92093219
C       -4.15523858       1.94370137       2.98425823
H       -3.69647868       1.78819273       3.97228161
C       -4.27418233       3.56427557       2.79930041
H       -5.02959182       3.89382184       3.52809881
N       -2.95722670       4.28282564       3.06855847
N       -3.10401843       5.75081794       3.39664660
C       -1.92149311       6.36496709       3.47733206
O       -1.69164301       7.56767728       3.64386890
C       -4.79586071       3.89892095       1.37413281
C       -5.09066630       5.37380718       1.16954982
Br      -6.05347168       5.64840799      -0.53695569
N       -5.52475759       1.25478001       2.95659192
N       -5.47256741      -0.19690562       3.43220435
C       -6.66422366      -0.79448788       3.35638502
O       -6.95074788      -1.96382920       3.63609413
H       -1.80417285       2.81664210       1.35137253
H       -1.34302695       1.87135927       2.81490443
H       -3.16119618       0.19495706       2.15564088
H       -3.71645634       1.30585620       0.93127103
H       -1.07830311       5.66102517       3.37256292
H       -5.71100082       3.32437505       1.18718319
H       -4.07062524       3.58208686       0.61488678
H       -4.18886010       5.97871148       1.05467770
H       -5.74243654       5.79001325       1.94171094
H       -7.44829601      -0.11420252       2.99066978
C        1.84415690      -1.84415690       1.84415690
C        1.63514493      -3.30336399       1.48990030
C        2.65794126      -4.27167635       2.15358057
H        3.66197493      -4.00194890       1.79302919
C        2.71910461      -4.13639974       3.78225396
H        3.38062290      -4.94592841       4.12496116
N        3.27734687      -2.79331019       4.23795375
N        3.81195931      -2.78793923       5.65158443
C        4.15077988      -1.56052893       6.05248345
O        4.53678440      -1.19753674       7.16886805
C        1.30762153      -4.37341844       4.38787450
C        1.30227803      -4.42691204       5.90483323
Br      -0.45427987      -5.05859115       6.56061270
N        2.33341236      -5.70059984       1.70211734
N        2.57417990      -5.92431902       0.20936723
C        2.24150588      -7.15916149      -0.17454658
O        2.28932956      -7.64411201      -1.31042875
H        1.52285708      -1.59325570       2.85607470
H        2.86622779      -1.50521373       1.65784912
H        1.70534284      -3.40742431       0.39902697
H        0.60928978      -3.60289976       1.74139402
H        4.05170738      -0.81594675       5.24423707
H        0.90786544      -5.31705336       3.99764026
H        0.61422686      -3.58679481       4.06657722
H        1.40996660      -3.44404807       6.36823460
H        2.03420501      -5.13015215       6.30980357
H        1.88493611      -7.77420226       0.66562490
C       -0.00445707       0.01189536      -1.78238275
H       -0.66409135       0.67374010      -2.43557963
H        0.65740317      -0.63156657      -2.45157240
C       -0.90989263      -0.90692880      -0.91072765
C        0.90977584       0.90977584      -0.90977584
C       -0.00465871       1.77757030       0.00794375
H       -0.66225468       2.44313916      -0.64384735
H        0.64322798       2.43503045       0.67728295
C       -1.78241447       0.00034974      -0.00472694
H       -2.45427497      -0.65498947       0.64260836
H       -2.43311707       0.67328779      -0.65473579
C       -0.91132561       0.90220522       0.91563759
C       -0.01476271      -0.02253852       1.78660255
H       -0.67934791      -0.69751639       2.42135241
H        0.63392994       0.61504881       2.47327442
C        0.01484550      -1.77751727      -0.01636693
H        0.67870853      -2.42144646      -0.68295456
H       -0.62264859      -2.45592969       0.64226336
C        1.78714474       0.01002794       0.00389507
H        2.44202412       0.67113390       0.66197326
H        2.45385902      -0.65136977      -0.64189061
C        0.91606151      -0.90478549       0.90901405
