117
Properties=species:S:1:pos:R:3 pbc="F F F"
C        0.00000000       0.00000000       0.00000000
C        0.93425287       0.93425287      -0.93425287
C        2.26321768       0.24946324      -1.18601622
C        3.14171293       0.94415586      -2.26761732
H        2.58996524       0.91796398      -3.21931174
C        3.42260880       2.52560562      -1.95983181
H        4.14148945       2.85598483      -2.72432612
N        2.15865213       3.37292181      -2.04732480
N        2.41054209       4.84731357      -2.26391524
C        1.28620586       5.56266574      -2.18520859
O        1.15365971       6.79049424      -2.22932316
C        4.08952552       2.68454855      -0.56512832
C        4.53331980       4.10498120      -0.26601022
N        4.44039217       0.14384217      -2.42218311
N        4.21688199      -1.24912807      -3.01040015
C        5.35138115      -1.94835821      -3.09338578
O        5.50601306      -3.10719499      -3.49448267
H        1.02412479       1.85780403      -0.36054658
H        0.35852247       1.09133527      -1.84972084
H        2.06521785      -0.78377059      -1.50063478
H        2.81935129       0.16096514      -0.24355506
H        0.39414322       4.92484419      -2.06319171
H        4.96097929       2.02111327      -0.51075442
H        3.40428253       2.36149936       0.22789507
H        3.70301479       4.76997070      -0.01955171
H        5.15362380       4.53394090      -1.05688396
H        6.22183691      -1.37189192      -2.74510621
C        5.35040657       4.13190691       0.91941975
C        6.03471674       4.15445719       1.91221735
Br       7.14118841       4.19091909       3.51748710
C       -0.93425287      -0.93425287      -0.93425287
C       -0.07008075      -1.85092005      -1.77769635
C       -0.86426213      -2.95808298      -2.53114100
H       -1.35471606      -3.59380815      -1.77871675
C       -2.06787680      -2.37055240      -3.46961703
H       -2.46106251      -3.23378920      -4.02694869
N       -3.18862642      -1.73506256      -2.65520976
N       -4.50698691      -1.62832602      -3.38645796
C       -5.40987062      -0.93501739      -2.68919216
O       -6.54707398      -0.59417594      -3.03222720
C       -1.49357334      -1.35215558      -4.49347348
C       -2.51463496      -0.87802457      -5.51165169
N        0.13122042      -3.80818080      -3.32945709
N        1.07589843      -4.61503773      -2.43901477
C        1.96561620      -5.31171490      -3.15031002
O        2.87665353      -6.03589584      -2.73405844
H       -1.50558694      -0.21457940      -1.52230907
H       -1.57912239      -1.47966571      -0.24079047
H        0.66878052      -2.32951416      -1.12134841
H        0.51932359      -1.25575711      -2.48743797
H       -5.03841044      -0.65516698      -1.68860171
H       -0.65313635      -1.81678379      -5.02292684
H       -1.08688782      -0.47468057      -3.97631841
H       -3.22979005      -0.16302152      -5.09972564
H       -3.03145610      -1.70027170      -6.01272086
H        1.82334588      -5.18420280      -4.23419428
C       -1.86391675      -0.13759606      -6.56138092
C       -1.31894026       0.48251281      -7.44052914
Br      -0.43775935       1.48517641      -8.86203747
C       -0.93425287       0.93425287       0.93425287
C       -2.05825415       1.53053266       0.10991033
C       -3.15430623       2.24644966       0.95273022
H       -3.61412595       1.49783376       1.61528124
C       -2.56085108       3.40833196       1.93886319
H       -3.43883490       3.90539499       2.37757052
N       -1.68585767       2.84202941       3.05101165
N       -1.52193181       3.75755096       4.24228812
C       -0.63307872       3.28302845       5.11797301
O       -0.20708113       3.82039589       6.14600009
C       -1.77310516       4.45872293       1.10737431
C       -1.32450254       5.65960535       1.92020333
N       -4.22263820       2.78819858      -0.00441933
N       -5.00668492       1.68284645      -0.71137729
C       -5.89919693       2.17258030      -1.57536851
O       -6.66404323       1.54798794      -2.31873043
H       -0.23930171       1.67972981       1.32344388
H       -1.29468837       0.27615044       1.72873976
H       -2.52724524       0.72402817      -0.46919137
H       -1.64442668       2.21844709      -0.63900229
H       -0.26387358       2.28215766       4.83614789
H       -2.40620476       4.80499069       0.28165153
H       -0.88838400       4.00099580       0.64850700
H       -0.47707032       5.44193541       2.57353148
H       -2.13925531       6.12363655       2.48155679
H       -5.90772216       3.27309134      -1.58576230
C       -0.82284848       6.69080337       1.04924189
C       -0.40271320       7.55443171       0.31981168
Br       0.27661002       8.95084570      -0.85961528
C        0.93425287      -0.93425287       0.93425287
C        0.26710050      -2.27782600       1.15377065
C        1.18258489      -3.33919526       1.83170596
H        2.04059369      -3.51979972       1.16684754
C        1.81870927      -2.83711157       3.25222540
H        2.33677402      -3.71144550       3.67358089
N        2.80902216      -1.69159400       3.07828258
N        3.77152378      -1.51950347       4.23074364
C        4.51551198      -0.41888544       4.09968277
O        5.33074154       0.05540180       4.89813738
C        0.68057926      -2.42970866       4.22891448
C        1.17236738      -2.10433952       5.62760432
N        0.38515504      -4.64026308       1.98099934
N        0.04755847      -5.29088158       0.63971402
C       -0.68695630      -6.39615573       0.78720929
O       -1.14417391      -7.13191397      -0.09443932
H        1.04370609      -0.34983626       1.84893306
H        1.88420120      -1.01522527       0.40015211
H       -0.06118751      -2.66370786       0.17956169
H       -0.65471384      -2.14375325       1.73483208
H        4.33651091       0.09315242       3.13882064
H       -0.04560500      -3.24918967       4.28926231
H        0.13510323      -1.56023738       3.84254621
H        1.66718194      -1.13308463       5.69227063
H        1.80145973      -2.89040632       6.05258260
H       -0.87976626      -6.62944718       1.84537028
C        0.05743078      -1.97566214       6.52980082
C       -0.87632862      -1.86789483       7.28539038
Br      -2.38613860      -1.69364421       8.50711480
