145
Properties=species:S:1:pos:R:3 pbc="F F F"
C        0.00000000       0.00000000       0.00000000
C        0.91634229       0.91634229      -0.91634229
C        0.05142337       1.89615451      -1.69749929
C        0.88566874       2.92187786      -2.46796155
N        0.10697812       3.91945919      -3.16390388
C       -0.67637711       4.84852690      -2.52181400
O       -0.90971452       4.82912543      -1.31632716
C       -1.33022551       5.87681577      -3.46048558
O       -2.63536785       6.22736944      -2.99696848
C       -0.44870174       7.13054075      -3.55105870
O        0.83388967       6.81789307      -4.11855714
C       -1.09293581       8.27579569      -4.35683841
O       -0.15534668       9.37501731      -4.38105727
C       -1.48522736       7.94924640      -5.81097245
O       -2.08668018       9.14177845      -6.36800590
C       -0.31862600       7.56979310      -6.73139385
O       -0.82791481       7.44225013      -8.06684801
H        1.46605956       0.22772101      -1.56146133
H        1.61367788       1.42550592      -0.24386333
H       -0.60525654       2.41522565      -0.99076824
H       -0.61595065       1.35128418      -2.37626519
H        1.61041834       3.42886063      -1.82380828
H        0.44012820       4.15787004      -4.09195349
H       -1.44670567       5.41143394      -4.44387599
H       -2.81809803       5.66358861      -2.21601643
H       -0.24530706       7.50630513      -2.53791417
H        1.29566970       7.68385846      -4.14623985
H       -1.97822081       8.64599509      -3.82461360
H       -0.61248523      10.06383158      -4.90953186
H       -2.25795515       7.17263764      -5.84360690
H       -2.18830172       8.93476549      -7.32081119
H        0.13207686       6.61593687      -6.45379070
H        0.44379321       8.35410870      -6.75114459
H       -0.06210466       7.24514914      -8.63587537
C        1.64080289       2.26646127      -3.50420549
C        2.27322775       1.71754987      -4.37205978
Br       3.29580525       0.83000657      -5.77530678
C       -0.91634229      -0.91634229      -0.91634229
C       -2.36364251      -0.45136736      -0.83006730
C       -3.26962193      -1.18316975      -1.82271647
N       -4.63820305      -0.72187580      -1.83026234
C       -5.00675143       0.54101331      -2.22822567
O       -4.20751111       1.44151622      -2.46974319
C       -6.52696181       0.77401444      -2.25412848
O       -6.84116818       2.11025252      -1.85805441
C       -7.06962367       0.50081735      -3.66409139
O       -6.86069752      -0.87050960      -4.03913277
C       -8.56311509       0.84712913      -3.82371232
O       -8.94486453       0.52334975      -5.17921310
C       -9.53528166       0.12834702      -2.86805686
O      -10.86524997       0.61222078      -3.17007497
C       -9.57681170      -1.39841279      -3.00733646
O      -10.62464748      -1.89468063      -2.16185522
H       -0.77473484      -1.93403926      -0.54646781
H       -0.51589854      -0.83549319      -1.93165540
H       -2.39241114       0.62477475      -1.03310096
H       -2.73678157      -0.56936610       0.19454895
H       -2.87908908      -1.14007936      -2.84391883
H       -5.33984847      -1.45133099      -1.89877227
H       -6.98517343       0.10034458      -1.52377541
H       -5.99565559       2.53400904      -1.59986046
H       -6.50635505       1.10078148      -4.39333868
H       -7.25914806      -0.93232268      -4.93429727
H       -8.70127887       1.93092458      -3.72203359
H       -9.89759710       0.75470167      -5.21798278
H       -9.33772096       0.40568929      -1.82625772
H      -11.45512856       0.03208794      -2.64423434
H       -8.64350671      -1.86669758      -2.69160015
H       -9.82007604      -1.69795338      -4.03101707
H      -10.65857808      -2.85814227      -2.30219951
C       -3.36095298      -2.57715930      -1.47335737
C       -3.43744273      -3.74462554      -1.18076913
Br      -3.56112019      -5.63231973      -0.70767870
C       -0.91634229       0.91634229       0.91634229
C       -1.06546314       0.28553261       2.29408142
C       -1.79368738       1.20362054       3.27820022
N       -1.89203810       0.67835521       4.61994789
C       -0.80133576       0.46422081       5.42840723
O        0.36163290       0.55316874       5.04420223
C       -1.15456418       0.00062104       6.85189063
O       -0.18708780      -0.93306804       7.33495031
C       -1.22945024       1.21437058       7.78907689
O       -2.27296630       2.11476172       7.38261187
C       -1.43673595       0.83447929       9.26848304
O       -1.51089232       2.06095700      10.02887858
C       -2.69032007      -0.00313268       9.58780410
O       -2.67674896      -0.26467600      11.01103120
C       -4.02758364       0.67965567       9.27532164
O       -5.08246621      -0.16286971       9.76158683
H       -1.86620259       1.00429518       0.38474413
H       -0.42802012       1.89479390       0.96023312
H       -0.06535704       0.05699418       2.67838613
H       -1.57909378      -0.68015300       2.21265793
H       -1.34111013       2.19879774       3.32317939
H       -2.78488866       0.82706810       5.07799498
H       -2.11696689      -0.51824389       6.80988126
H        0.43759770      -1.09863380       6.59773850
H       -0.29370812       1.78738003       7.71782410
H       -2.24131017       2.82951356       8.05494429
H       -0.55076108       0.30321507       9.63841173
H       -1.65042198       1.75862035      10.95183587
H       -2.64374134      -0.98160088       9.09614892
H       -3.55129856      -0.67110844      11.18708484
H       -4.17892680       0.81888619       8.20399144
H       -4.11573289       1.63827167       9.79504193
H       -5.91543800       0.31264062       9.59084123
C       -3.15988042       1.38901542       2.86257381
C       -4.30406709       1.54428364       2.51448668
Br      -6.15412016       1.79533920       1.95165924
C        0.91634229      -0.91634229       0.91634229
C        2.07636437      -0.09958228       1.46913053
C        2.89866968      -0.87946663       2.49737182
N        3.96530456      -0.11922974       3.10580689
C        3.74888871       0.97024210       3.91531719
O        2.64938696       1.49222323       4.07857435
C        5.02814937       1.55702133       4.53594780
O        4.93859184       2.97977806       4.63015629
C        5.25507889       0.94989622       5.92771504
O        5.45716182      -0.47025071       5.84292735
C        6.43620821       1.58454329       6.68803336
O        6.55004457       0.91028645       7.96096976
C        7.80846851       1.52284854       5.98937153
O        8.75754170       2.18936280       6.85492527
C        8.35090100       0.10988437       5.74154433
O        9.68451406       0.22869692       5.22536619
H        1.24309564      -1.73740613       0.27474013
H        0.26933788      -1.30470597       1.70900328
H        1.66974614       0.80447692       1.93546812
H        2.71430591       0.25169960       0.64899240
H        2.27245540      -1.30138304       3.28924881
H        4.83764954      -0.62179105       3.23051114
H        5.86459710       1.32560330       3.86961045
H        4.09315587       3.23777717       4.20612830
H        4.35044198       1.08867328       6.53714354
H        5.61025447      -0.74152414       6.77398941
H        6.20276160       2.63114538       6.92077166
H        7.31584177       1.34685224       8.39188868
H        7.79715573       2.09106025       5.05219391
H        9.62743216       2.00319494       6.44303774
H        7.75682565      -0.43696557       5.00801321
H        8.41581185      -0.46028263       6.67295200
H       10.02044144      -0.67955861       5.11891981
C        3.56307415      -1.98730699       1.86108851
C        4.11951289      -2.91512328       1.32820123
Br       5.01922727      -4.41532376       0.46656758
