157
Properties=species:S:1:pos:R:3 pbc="F F F"
C        0.00000000       0.00000000       0.00000000
C        0.88505544       0.88505544      -0.88505544
C        2.15678278       0.44966978      -1.19474695
C        2.95512418       1.27456666      -1.98203109
C        2.47636795       2.50878335      -2.46958688
C        1.17437937       2.82918448      -2.10158001
N        0.37290746       2.05713987      -1.31939559
C        3.34780710       3.35319788      -3.32093788
C        4.11240544       2.68534021      -4.31810207
C        5.07098280       3.32726826      -5.10294824
C        5.31410673       4.67153884      -4.90891204
C        4.55142458       5.36812449      -3.97582779
C        3.52505738       4.75477814      -3.19991327
C        2.67175975       5.71359934      -2.44564924
C        1.96639475       6.64081406      -3.26547938
C        1.27723008       7.73698995      -2.75313624
C        1.26809756       7.94207917      -1.38918558
C        1.90271711       7.02216086      -0.55377833
C        2.58617484       5.87058090      -1.03754561
C        3.11572579       4.92946533      -0.02206380
C        2.34458804       4.60699652       1.11329203
C        2.82993885       3.75401763       2.10196416
C        4.08758272       3.20894003       1.92462603
N        4.86698583       3.47264525       0.85508754
C        4.36842274       4.32590461      -0.07953238
Br       4.76129772       2.03344785       3.25029243
H        2.54000146      -0.50222217      -0.83656063
H        3.96891869       0.94760925      -2.20495355
H        0.70020288       3.74787565      -2.43401276
H        3.95934157       1.62087066      -4.49876368
H        5.62798316       2.77102713      -5.85196305
H        6.06594733       5.18899318      -5.49732846
H        4.73331813       6.43940971      -3.87278348
H        1.99010237       6.52270265      -4.35054736
H        0.78173933       8.43434082      -3.42258361
H        0.76427743       8.80863229      -0.96734998
H        1.86674819       7.22263842       0.51740521
H        1.34504171       5.01885703       1.23816806
H        2.22918430       3.53425219       2.97648328
H        5.05243532       4.51538796      -0.90183296
C       -0.88505544      -0.88505544      -0.88505544
C       -0.59716483      -0.97280744      -2.23122724
C       -1.42295262      -1.76399730      -3.02477201
C       -2.50904876      -2.47423748      -2.47145194
C       -2.68686462      -2.31681236      -1.10146688
N       -1.91194651      -1.53840665      -0.29908977
C       -3.35639294      -3.32215968      -3.34339025
C       -2.68501952      -4.11497968      -4.31584853
C       -3.35372901      -4.85857656      -5.28889374
C       -4.73232996      -4.82612301      -5.33610464
C       -5.42435510      -4.10004909      -4.37097267
C       -4.77315744      -3.37752261      -3.32906873
C       -5.68829129      -2.87491305      -2.26780399
C       -6.40037508      -3.89645149      -1.57586161
C       -7.44380835      -3.63066357      -0.69288436
C       -7.81100413      -2.32026584      -0.46809234
C       -7.09810440      -1.29310153      -1.08745038
C       -6.00293204      -1.52376304      -1.96760627
C       -5.27655530      -0.32955798      -2.46114164
C       -4.99085372       0.73671845      -1.58415726
C       -4.34161646       1.88684674      -2.02722259
C       -3.96017627       1.94275645      -3.35447690
N       -4.19735000       0.95037924      -4.23757278
C       -4.85163176      -0.14829485      -3.77393312
Br      -3.06163173       3.49216131      -3.97498271
H        0.24071850      -0.44085370      -2.67420471
H       -1.21615717      -1.81322521      -4.09209910
H       -3.48255969      -2.82995262      -0.56957898
H       -1.59557556      -4.16239087      -4.32100947
H       -2.79337552      -5.44858770      -6.00901012
H       -5.27387116      -5.38461304      -6.09378477
H       -6.51502627      -4.12632726      -4.40415778
H       -6.15481697      -4.94320195      -1.76533347
H       -7.97778569      -4.44660813      -0.21426994
H       -8.64365151      -2.08861461       0.19200641
H       -7.42117997      -0.27301137      -0.87779007
H       -5.27106412       0.67948028      -0.53414684
H       -4.14872510       2.70332539      -1.34155350
H       -5.03280194      -0.89903906      -4.53781524
C       -0.88505544       0.88505544       0.88505544
C       -0.53105943       1.06392953       2.20621054
C       -1.35661669       1.85340366       3.00170158
C       -2.50909226       2.47222011       2.47342581
C       -2.75068531       2.22842094       1.12603760
N       -1.97703753       1.44847546       0.32392994
C       -3.35515492       3.32152914       3.34525880
C       -2.67861342       4.20272883       4.23450547
C       -3.33528923       4.96328183       5.20262824
C       -4.70536355       4.85992817       5.32926590
C       -5.40587126       4.04458273       4.44492287
C       -4.77152331       3.30021290       3.40801258
C       -5.71221808       2.69030643       2.42848381
C       -6.51679602       3.63163746       1.72425471
C       -7.58924630       3.26104656       0.91706341
C       -7.89335767       1.92230176       0.78370288
C       -7.09152709       0.97130738       1.41582183
C       -5.96566180       1.30948349       2.21915606
C       -5.14768709       0.18557005       2.73399779
C       -4.84950889      -0.91172804       1.90051168
C       -4.11362560      -1.99866947       2.36703618
C       -3.65926282      -1.95909173       3.67172564
N       -3.90456112      -0.93253117       4.51251359
C       -4.64366792       0.10168060       4.02851122
Br      -2.64280228      -3.42076185       4.32241270
H        0.35799239       0.60336716       2.62896514
H       -1.09619511       1.97379350       4.05149287
H       -3.60136515       2.66746119       0.61326495
H       -1.59486720       4.30850103       4.17560768
H       -2.77146476       5.62210699       5.85740159
H       -5.23631256       5.43057007       6.08538635
H       -6.49295251       4.01437634       4.53818247
H       -6.32095606       4.69903907       1.84335726
H       -8.19325004       4.01896718       0.42644655
H       -8.74567803       1.60959100       0.18499068
H       -7.36723391      -0.07479648       1.27954398
H       -5.18820902      -0.92891912       0.86644078
H       -3.91185761      -2.84108325       1.71617886
H       -4.82585963       0.88360105       4.76019557
C        0.88505544      -0.88505544       0.88505544
C        2.22590491      -0.58039634       0.99489826
C        3.01991843      -1.40614634       1.78565717
C        2.47192451      -2.50907971       2.47373396
C        1.10670558      -2.70305783       2.29538045
N        0.30438011      -1.92845980       1.51660301
C        3.34385062      -3.35610268       3.32198957
C        4.29642086      -2.68259154       4.13683533
C        5.26840891      -3.34824478       4.88454562
C        5.33474020      -4.72552383       4.83429358
C        4.38888199      -5.42049004       4.08600483
C        3.34800327      -4.77355246       3.35819306
C        2.30606546      -5.69590340       2.82903947
C        1.61023760      -6.43096837       3.83148222
C        0.74512627      -7.48242156       3.53980845
C        0.54288654      -7.83478837       2.22168739
C        1.16620744      -7.09980245       1.21264641
C        2.02826627      -5.99618096       1.46985412
C        2.52783945      -5.24713870       0.29227678
C        1.66140583      -4.95876289      -0.78187619
C        2.11097448      -4.28811907      -1.91710124
C        3.43356338      -3.88823231      -1.94989897
N        4.30643802      -4.12700518      -0.94889967
C        3.83705561      -4.80227011       0.13453402
Br       4.06250154      -2.96053798      -3.47858638
H        2.66455686       0.27047528       0.48025834
H        4.08358892      -1.18577599       1.85211657
H        0.57883894      -3.51268328       2.79056907
H        4.28617295      -1.59391916       4.19888380
H        5.97290196      -2.78635934       5.49171204
H        6.09215435      -5.26440310       5.39571152
H        4.43649973      -6.51087566       4.09813593
H        1.78234045      -6.19711447       4.88389746
H        0.26292310      -8.03377025       4.34197042
H       -0.10270185      -8.67297491       1.96998664
H        0.97461430      -7.41179137       0.18557574
H        0.61462000      -5.25374694      -0.74263625
H        1.43373792      -4.09336442      -2.74014912
H        4.59321154      -4.98336787       0.89307683
