186
Properties=species:S:1:pos:R:3 pbc="F F F"
C        1.79495947       1.79495947      -1.79495947
C        3.06668680       1.35957381      -2.10465098
C        3.86502820       2.18447068      -2.89193512
C        3.38627197       3.41868737      -3.37949090
C        2.08428339       3.73908851      -3.01148403
N        1.28281149       2.96704390      -2.22929962
C        4.25771112       4.26310191      -4.23084191
C        5.02230947       3.59524423      -5.22800610
C        5.98088682       4.23717229      -6.01285227
C        6.22401076       5.58144287      -5.81881606
C        5.46132860       6.27802852      -4.88573181
C        4.43496141       5.66468216      -4.10981729
C        3.58166377       6.62350336      -3.35555327
C        2.87629877       7.55071809      -4.17538340
C        2.18713410       8.64689398      -3.66304026
C        2.17800159       8.85198319      -2.29908960
C        2.81262114       7.93206488      -1.46368236
C        3.49607886       6.78048493      -1.94744964
C        4.02562982       5.83936935      -0.93196783
C        3.25449206       5.51690054       0.20338800
C        3.73984287       4.66392165       1.19206014
C        4.99748675       4.11884405       1.01472200
N        5.77688986       4.38254927      -0.05481648
C        5.27832676       5.23580864      -0.98943641
H        3.44990548       0.40768185      -1.74646465
H        4.87882271       1.85751327      -3.11485757
H        1.61010691       4.65777967      -3.34391678
H        4.86924559       2.53077468      -5.40866770
H        6.53788718       3.68093116      -6.76186707
H        6.97585135       6.09889720      -6.40723248
H        5.64322216       7.34931373      -4.78268750
H        2.90000640       7.43260667      -5.26045139
H        1.69164336       9.34424485      -4.33248764
H        1.67418145       9.71853632      -1.87725400
H        2.77665222       8.13254245      -0.39249882
H        2.25494574       5.92876105       0.32826404
H        3.13908833       4.44415622       2.06657925
H        5.96233935       5.42529199      -1.81173699
C        5.50929367       3.22584769       2.02180252
C        5.93793197       2.47796324       2.86523246
Br       6.63100386       1.26869734       4.22898733
C       -1.79495947      -1.79495947      -1.79495947
C       -1.54629703      -1.83339189      -3.15122266
C       -2.37212550      -2.62558012      -3.94372838
C       -3.41883446      -3.38530051      -3.38031528
C       -3.55887647      -3.27457233      -2.00140712
N       -2.78321451      -2.49699278      -1.19894771
C       -4.26692117      -4.23248511      -4.25224865
C       -3.60245483      -4.97468391      -5.26842105
C       -4.27832274      -5.70909071      -6.24349793
C       -5.65807726      -5.71784551      -6.24834692
C       -6.34140221      -5.04274942      -5.24093730
C       -5.68027099      -4.33199817      -4.19719170
C       -6.57683073      -3.88993350      -3.09395617
C       -7.23626177      -4.95326259      -2.41287590
C       -8.25941304      -4.74642088      -1.49123443
C       -8.65859484      -3.45531928      -1.21516026
C       -7.99627467      -2.38851961      -1.82357410
C       -6.92239779      -2.55875349      -2.74286214
C       -6.24773176      -1.32842230      -3.22081294
C       -5.96715510      -0.28058953      -2.32025997
C       -5.36667681       0.90180991      -2.74683749
C       -5.02827243       1.00922940      -4.08256577
N       -5.26276972       0.03690983      -4.98839572
C       -5.86919423      -1.09485554      -4.53952204
H       -0.73881862      -1.26276834      -3.60246503
H       -2.19702244      -2.63638640      -5.01778472
H       -4.32202258      -3.82776097      -1.46201981
H       -2.51275913      -4.98823713      -5.30769172
H       -3.72305511      -6.25966114      -6.99796916
H       -6.20578833      -6.26984233      -7.00635039
H       -7.43130032      -5.10170599      -5.24221709
H       -6.96541493      -5.98577788      -2.64187164
H       -8.75365513      -5.59245062      -1.02227010
H       -9.47701857      -3.26939072      -0.52356249
H       -8.34314439      -1.38563991      -1.57290919
H       -6.21294940      -0.37789991      -1.26459345
H       -5.17724900       1.70294251      -2.04235880
H       -6.05129819      -1.82760850      -5.32046163
C       -4.39613895       2.22040510      -4.53760499
C       -3.86672716       3.23476475      -4.91870034
Br      -3.01071308       4.87489851      -5.53489929
C       -1.79495947       1.79495947       1.79495947
C       -1.66903191       1.69678723       3.16509245
C       -2.49462981       2.49202536       3.95477883
C       -3.41811975       3.38878472       3.37754578
C       -3.44024792       3.40718169       1.98742632
N       -2.66229583       2.63186083       1.18499834
C       -4.26846285       4.23397948       4.24921261
C       -3.63990793       4.82459358       5.38105828
C       -4.33823755       5.53349424       6.35917959
C       -5.70705433       5.66795780       6.24925755
C       -6.34950483       5.14491946       5.13066464
C       -5.65753742       4.46658951       4.08533393
C       -6.48330058       4.20230912       2.87511071
C       -6.98631761       5.37476938       2.24131327
C       -7.93460613       5.34026794       1.22219427
C       -8.41357042       4.11875372       0.79675024
C       -7.90133162       2.94867020       1.35836656
C       -6.90555910       2.94240439       2.37604994
C       -6.38283188       1.61984669       2.79428843
C       -6.10980316       0.62984908       1.82835237
C       -5.65197933      -0.63406035       2.19378540
C       -5.44733739      -0.88344656       3.53771796
N       -5.68144809       0.02696466       4.50584286
C       -6.14737305       1.24304156       4.11315720
H       -0.95683386       1.01893632       3.62828180
H       -2.41819863       2.39679808       5.03619684
H       -4.10185462       4.07105877       1.43888997
H       -2.56107836       4.73509819       5.51251143
H       -3.81015139       5.96585903       7.20467499
H       -6.27363835       6.20231264       7.00603005
H       -7.42617206       5.30298807       5.04606326
H       -6.65204524       6.35537162       2.58564759
H       -8.31130327       6.26423724       0.79283533
H       -9.17799832       4.06701836       0.02495510
H       -8.30657691       2.00624182       0.98887475
H       -6.24900863       0.83728367       0.76915046
H       -5.46667002      -1.38734420       1.43733947
H       -6.33813338       1.92140123       4.93983371
C       -4.96311517      -2.18118837       3.93141204
C       -4.55757907      -3.26804714       4.26113083
Br      -3.90186148      -5.02540584       4.79425823
C        1.79495947      -1.79495947       1.79495947
C        3.16506086      -1.69839788       1.66745284
C        3.95415436      -2.52387289       2.46340675
C        3.37697520      -3.41788355       3.38959149
C        1.98733478      -3.41185049       3.43567066
N        1.18496900      -2.63335749       2.66082851
C        4.24853075      -4.26875388       4.23437031
C        5.40406055      -3.65149747       4.79000178
C        6.38228351      -4.35521362       5.49341424
C        6.24826336      -5.71866064       5.65734568
C        5.10705977      -6.34874762       5.16928154
C        4.06214023      -5.64944830       4.49787233
C        2.83092245      -6.45587238       4.27392558
C        2.21095451      -6.92304023       5.46840552
C        1.17295833      -7.85125851       5.47285150
C        0.71387203      -8.34547162       4.26973073
C        1.26191542      -7.86759595       3.07885701
C        2.29859220      -6.89268263       3.03273859
C        2.70047121      -6.40444474       1.69205105
C        1.72047277      -6.13161600       0.71591582
C        2.06946741      -5.70605081      -0.56381384
C        3.41189835      -5.53324576      -0.84353532
N        4.39325645      -5.76877542       0.05222375
C        4.01590479      -6.20283127       1.28483575
H        3.62847613      -1.00902555       0.96655030
H        5.03474269      -2.47095842       2.34549244
H        1.43931821      -4.04921890       4.12326624
H        5.55481851      -2.57747305       4.67639641
H        7.24644227      -3.83576350       5.89847965
H        7.00431696      -6.28967871       6.18798537
H        5.00454855      -7.42020317       5.35047168
H        2.58131044      -6.57656273       6.43519129
H        0.75485672      -8.20111377       6.41240535
H       -0.07363804      -9.09518378       4.24842603
H        0.86578395      -8.28376737       2.15214217
H        0.66310473      -6.24552499       0.94681303
H        1.30189015      -5.52045563      -1.30568048
H        4.85208034      -6.39674797       1.95054001
C        3.78898398      -5.08252066      -2.15816580
C        4.10479320      -4.70503839      -3.25916883
Br       4.61542999      -4.09468149      -5.03939762
C       -0.00445707       0.01189536      -1.78238275
H       -0.66409135       0.67374010      -2.43557963
H        0.65740317      -0.63156657      -2.45157240
C       -0.90989263      -0.90692880      -0.91072765
C        0.90977584       0.90977584      -0.90977584
C       -0.00465871       1.77757030       0.00794375
H       -0.66225468       2.44313916      -0.64384735
H        0.64322798       2.43503045       0.67728295
C       -1.78241447       0.00034974      -0.00472694
H       -2.45427497      -0.65498947       0.64260836
H       -2.43311707       0.67328779      -0.65473579
C       -0.91132561       0.90220522       0.91563759
C       -0.01476271      -0.02253852       1.78660255
H       -0.67934791      -0.69751639       2.42135241
H        0.63392994       0.61504881       2.47327442
C        0.01484550      -1.77751727      -0.01636693
H        0.67870853      -2.42144646      -0.68295456
H       -0.62264859      -2.45592969       0.64226336
C        1.78714474       0.01002794       0.00389507
H        2.44202412       0.67113390       0.66197326
H        2.45385902      -0.65136977      -0.64189061
C        0.91606151      -0.90478549       0.90901405
