194
Properties=species:S:1:pos:R:3 pbc="F F F"
C        1.79491134       1.79491134      -1.79491134
C        3.15042826       1.86824818      -1.52618910
C        3.94204624       2.68743356      -2.33286372
C        3.37989397       3.40797997      -3.39848316
C        2.00442166       3.24339797      -3.57532156
N        1.20088513       2.47349382      -2.79693544
C        4.21635961       4.24571216      -4.29081558
C        5.41952005       3.70482920      -4.79735344
C        6.26669961       4.43896281      -5.63188962
C        5.93018409       5.73717653      -5.99122154
C        4.74788292       6.29909811      -5.51558745
C        3.89374728       5.56968768      -4.67162101
C        2.70325757       6.23441600      -4.22574616
C        1.67783135       6.75852838      -3.87934313
C        0.33120422       7.32613569      -3.43595775
C       -0.76146109       7.64943354      -3.04578676
C       -2.07862137       7.91432712      -2.54611516
C       -2.95373497       8.64269001      -3.36553787
C       -4.25110818       8.92423909      -2.94069320
C       -4.68317065       8.47738677      -1.69704213
C       -3.81719350       7.75020480      -0.87624190
C       -2.49997686       7.45237850      -1.27611575
C       -1.62184238       6.69402414      -0.36078355
C       -0.96664580       5.51785725      -0.74457675
C       -0.12394837       4.85517705       0.14719081
C        0.02382732       5.36927530       1.42417549
N       -0.60354002       6.48415133       1.85132102
C       -1.39904781       7.11522797       0.95270045
Br       1.16318613       4.46864331       2.64276860
H        3.59509445       1.30666655      -0.71177221
H        5.00726773       2.75600255      -2.12110277
H        1.47913332       3.73263929      -4.39239004
H        5.70824709       2.68408810      -4.54948421
H        7.18669810       3.99200247      -6.00082510
H        6.58473648       6.31216696      -6.64126292
H        4.49313701       7.31699316      -5.80538376
H       -2.62754840       8.99270346      -4.34267927
H       -4.92392026       9.48837779      -3.58164611
H       -5.69587183       8.69026723      -1.36313652
H       -4.18854501       7.40223266       0.08702265
H       -1.09581387       5.10649049      -1.74383085
H        0.39894100       3.95965152      -0.16522942
H       -1.86950736       8.01791304       1.33672652
C       -1.79491134      -1.79491134      -1.79491134
C       -1.55121142      -1.83718509      -3.15646903
C       -2.37263252      -2.63806397      -3.95164703
C       -3.41100700      -3.39243268      -3.38291742
C       -3.55007260      -3.27474240      -1.99832618
N       -2.78445972      -2.48898136      -1.19787331
C       -4.26156469      -4.28202465      -4.20929801
C       -3.63825462      -5.14375200      -5.13969607
C       -4.37454203      -5.99985312      -5.96315689
C       -5.75990602      -6.02433512      -5.87434103
C       -6.40656282      -5.19302781      -4.96297785
C       -5.67390435      -4.32543800      -4.13571364
C       -6.42714098      -3.50157119      -3.23470757
C       -7.03834427      -2.83689661      -2.44046199
C       -7.72839116      -1.99744394      -1.36746255
C       -8.15018193      -1.31276020      -0.47081709
C       -8.53263705      -0.48256833       0.63338446
C       -9.57983884      -0.92816282       1.45350875
C       -9.99178150      -0.17091145       2.54886884
C       -9.35844855       1.03359902       2.83359128
C       -8.31375415       1.48283538       2.02166557
C       -7.87682030       0.74183595       0.90646696
C       -6.77829508       1.27277172       0.07255805
C       -5.62166780       0.53663733      -0.21075773
C       -4.62654259       1.07100778      -1.02850306
C       -4.79567929       2.35214649      -1.52539433
N       -5.87859833       3.11188745      -1.26257941
C       -6.83635204       2.55421958      -0.48134725
Br      -3.44280597       3.08608099      -2.63233586
H       -0.74442079      -1.26613612      -3.60297631
H       -2.19143483      -2.66869127      -5.02424695
H       -4.30335361      -3.84317046      -1.45763858
H       -2.55249949      -5.16317513      -5.22614478
H       -3.86180978      -6.64740842      -6.67030746
H       -6.33742399      -6.68935721      -6.51138517
H       -7.49295557      -5.22201600      -4.90054236
H      -10.07888721      -1.87168818       1.24274106
H      -10.80339304      -0.52319193       3.18048134
H       -9.67289438       1.62559183       3.68977062
H       -7.82824468       2.42389990       2.27767978
H       -5.48315780      -0.46443348       0.19308380
H       -3.74608994       0.48568288      -1.26341489
H       -7.69739292       3.19717945      -0.31146569
C       -1.79491134       1.79491134       1.79491134
C       -1.19715564       2.59441809       2.75329181
C       -2.01632665       3.38602418       3.55999268
C       -3.41032777       3.38183916       3.39419017
C       -3.89288856       2.54253429       2.38771834
N       -3.12789724       1.74306811       1.60034904
C       -4.28817472       4.25154048       4.21317216
C       -3.93427691       5.60962090       4.37780488
C       -4.70416761       6.48642574       5.14695870
C       -5.85829831       6.03053529       5.76974856
C       -6.24046636       4.69930564       5.62279648
C       -5.46885605       3.81020678       4.85599316
C       -5.93728690       2.45708169       4.76905114
C       -6.33895774       1.33021082       4.64653431
C       -6.80213225      -0.10294044       4.39410584
C       -7.07316595      -1.23890738       4.09950065
C       -7.30336159      -2.58481541       3.66327474
C       -8.62617260      -2.96741989       3.39574020
C       -8.91428608      -4.25935440       2.95889244
C       -7.88324285      -5.17542774       2.78344315
C       -6.56315153      -4.80068481       3.04678648
C       -6.24054065      -3.50400256       3.49197930
C       -4.82893652      -3.16709524       3.77112403
C       -4.18363403      -2.07206961       3.18422379
C       -2.85846899      -1.77825074       3.50381961
C       -2.19102646      -2.60939917       4.38729984
N       -2.75872111      -3.69011443       4.96068361
C       -4.05428543      -3.93508428       4.64427856
Br      -0.38717264      -2.21837310       4.82026130
H       -0.12025426       2.61213420       2.88114475
H       -1.55274672       4.01035236       4.32127396
H       -4.95470140       2.49162997       2.15783128
H       -3.04407265       6.00649965       3.89124709
H       -4.40008551       7.52480098       5.25463918
H       -6.46164456       6.70858090       6.36794091
H       -7.14824503       4.35332667       6.11394223
H       -9.43999363      -2.25696183       3.52480253
H       -9.94176886      -4.54827900       2.75261378
H       -8.10232866      -6.18298769       2.43819095
H       -5.77552835      -5.53629376       2.88743041
H       -4.70490359      -1.42853459       2.47813848
H       -2.37391314      -0.91486686       3.06477567
H       -4.47382020      -4.80584105       5.14369999
C        1.79491134      -1.79491134       1.79491134
C        2.84931611      -1.21624579       2.47930364
C        3.65402800      -2.03639835       3.27191717
C        3.39215141      -3.41110009       3.38310560
C        2.29492434      -3.87434423       2.65387261
N        1.50510268      -3.11007522       1.85613649
C        4.21083209      -4.28512593       4.25692933
C        4.50032318      -3.85119794       5.57018157
C        5.27744642      -4.61362315       6.44648247
C        5.78304067      -5.83976262       6.03577887
C        5.51117943      -6.30127027       4.75011879
C        4.73559772      -5.53816163       3.86129663
C        4.51582455      -6.09147295       2.55612223
C        4.28214556      -6.56003788       1.47351942
C        3.89214702      -7.10133754       0.09981309
C        3.49565021      -7.42775260      -0.98964360
C        2.94545692      -7.71754195      -2.28117795
C        2.55911686      -9.04007319      -2.54469715
C        2.00831174      -9.38369230      -3.77817992
C        1.83698674      -8.40842573      -4.75415422
C        2.21838311      -7.08883271      -4.49796262
C        2.78023484      -6.71118794      -3.26290540
C        3.18087471      -5.30435696      -3.05226636
C        2.72333363      -4.54277761      -1.97032303
C        3.15501293      -3.22793740      -1.79891247
C        4.01824532      -2.68739265      -2.73671083
N        4.46878556      -3.36976808      -3.80926335
C        4.04597165      -4.65201307      -3.93450502
Br       4.60312371      -0.89805706      -2.51211993
H        3.05246899      -0.15323239       2.40783183
H        4.49000497      -1.58866949       3.80569858
H        1.98884018      -4.91704581       2.69827666
H        4.10756353      -2.90185505       5.93240081
H        5.48300853      -4.24716893       7.44934820
H        6.38682521      -6.43754721       6.71379394
H        5.91107735      -7.26491012       4.43952646
H        2.68403285      -9.81004104      -1.78623956
H        1.71035936     -10.41049896      -3.97475469
H        1.40327343      -8.67048881      -5.71623032
H        2.05964093      -6.34441299      -5.27738891
H        2.03272898      -4.96412905      -1.24235055
H        2.81616034      -2.65334209      -0.94568048
H        4.44884584      -5.16693427      -4.80410096
C       -0.00445707       0.01189536      -1.78238275
H       -0.66409135       0.67374010      -2.43557963
H        0.65740317      -0.63156657      -2.45157240
C       -0.90989263      -0.90692880      -0.91072765
C        0.90977584       0.90977584      -0.90977584
C       -0.00465871       1.77757030       0.00794375
H       -0.66225468       2.44313916      -0.64384735
H        0.64322798       2.43503045       0.67728295
C       -1.78241447       0.00034974      -0.00472694
H       -2.45427497      -0.65498947       0.64260836
H       -2.43311707       0.67328779      -0.65473579
C       -0.91132561       0.90220522       0.91563759
C       -0.01476271      -0.02253852       1.78660255
H       -0.67934791      -0.69751639       2.42135241
H        0.63392994       0.61504881       2.47327442
C        0.01484550      -1.77751727      -0.01636693
H        0.67870853      -2.42144646      -0.68295456
H       -0.62264859      -2.45592969       0.64226336
C        1.78714474       0.01002794       0.00389507
H        2.44202412       0.67113390       0.66197326
H        2.45385902      -0.65136977      -0.64189061
C        0.91606151      -0.90478549       0.90901405
