189
Properties=species:S:1:pos:R:3 pbc="F F F"
C        0.00000000       0.00000000       0.00000000
C        0.86741263       0.86741263      -0.86741263
C        2.17550691       0.59957536      -1.20330609
C        2.60369498       1.66978136      -2.03341634
C        1.51311078       2.52212856      -2.14251721
O        0.45870925       2.03454491      -1.43295351
C        1.50880273       3.70332337      -2.87829679
C        2.70585149       4.02599792      -3.55242240
C        3.85228089       3.18526102      -3.47182135
C        3.79452050       2.00551350      -2.70451545
C        5.02555398       3.53460736      -4.15945898
C        5.10714472       4.69242118      -4.94081204
C        3.96694284       5.48656241      -5.00140893
C        2.78000945       5.20752154      -4.33852219
C        1.90656782       6.28024034      -4.67642405
C        2.59248861       7.12844974      -5.52859752
O        3.85652694       6.63544464      -5.71908131
C        2.12150025       8.32654186      -6.15436859
O        0.90417996       8.88800251      -5.87112235
C        0.76663300       9.99498157      -6.64800773
C        1.88374274      10.17004222      -7.45275849
C        2.75473843       9.09529897      -7.11567069
C        1.90526181      11.27112466      -8.35078494
C        3.01884017      11.46844443      -9.19486022
C        2.95620818      12.56029643     -10.05539137
O        3.92103000      12.91273615     -10.94885468
C        3.47559809      14.02397584     -11.59295646
C        2.23545387      14.39331682     -11.12284859
C        1.88890340      13.44604689     -10.12269192
C        0.78677081      13.24308324      -9.27103738
C        0.78639143      12.15113883      -8.38105365
C       -0.30672861      11.92129340      -7.53012831
C       -0.34057995      10.83677701      -6.64640642
H        2.75216057      -0.26009943      -0.89343065
H        0.62120880       4.32198178      -2.92296902
H        4.65632282       1.34785650      -2.62908239
H        5.90488135       2.89467822      -4.09840031
H        6.00950133       4.96033808      -5.47733190
H        0.88460480       6.41965832      -4.35254107
H        3.73029499       8.88725051      -7.53267293
H        3.88226327      10.81492241      -9.19541658
H        1.64939482      15.23701550     -11.45776000
H       -0.05644766      13.92733902      -9.31251790
H       -1.16363688      12.59337177      -7.54933537
H       -1.18598108      10.65453939      -5.99377106
C        4.20902971      14.71023681     -12.62481108
C        4.82327869      15.28498037     -13.48898932
Br       5.81646734      16.21429209     -14.88629244
C       -0.86741263      -0.86741263      -0.86741263
C       -2.06508290      -0.48477870      -1.42852676
C       -2.53749190      -1.60263383      -2.16676697
C       -1.58290604      -2.59667396      -1.99817655
O       -0.56885208      -2.14965123      -1.20770437
C       -1.66052357      -3.86554205      -2.56435728
C       -2.79415411      -4.12700628      -3.36311141
C       -3.80149307      -3.14134569      -3.56652450
C       -3.66738556      -1.87725028      -2.95991361
C       -4.91407780      -3.43408514      -4.37145737
C       -5.06640075      -4.67569160      -4.99828559
C       -4.06075845      -5.61186577      -4.78228995
C       -2.94214441      -5.39353200      -3.99037677
C       -2.20366556      -6.60963468      -4.04993196
C       -2.89232457      -7.47962573      -4.87758557
O       -4.03189422      -6.86019360      -5.31896508
C       -2.52952876      -8.80940411      -5.26347782
O       -1.45815814      -9.47585023      -4.72929644
C       -1.38866711     -10.69557447      -5.32538072
C       -2.40468053     -10.84249298      -6.25936995
C       -3.14035136      -9.62484834      -6.20050839
C       -2.47436307     -12.05391850      -6.99888983
C       -3.48513484     -12.22903276      -7.96797722
C       -3.47585892     -13.43675112      -8.65928594
O       -4.35777215     -13.79072941      -9.63411926
C       -4.00454746     -15.03482224     -10.05316069
C       -2.90627030     -15.48784118      -9.35750780
C       -2.55457243     -14.45419054      -8.44887924
C       -1.55515625     -14.27091010      -7.47482508
C       -1.50651560     -13.06689100      -6.74517732
C       -0.51178763     -12.85620141      -5.77670406
C       -0.43064774     -11.66477366      -5.04718208
H       -2.54115318       0.47959134      -1.32392995
H       -0.87807305      -4.59438087      -2.39370569
H       -4.42270420      -1.10892946      -3.10162806
H       -5.68736331      -2.68301363      -4.52758295
H       -5.92096722      -4.90124175      -5.62496234
H       -1.26547896      -6.83088360      -3.56044163
H       -4.01057135      -9.35642708      -6.78322001
H       -4.23274503     -11.47599624      -8.18386098
H       -2.41530922     -16.44155373      -9.48730736
H       -0.82648644     -15.05775705      -7.29916578
H        0.22922374     -13.62954792      -5.57874608
H        0.34004535     -11.49826243      -4.30411228
C       -4.69192005     -15.76697140     -11.08518614
C       -5.26759459     -16.38014633     -11.94950746
Br      -6.19841163     -17.37159832     -13.34704192
C       -0.86741263       0.86741263       0.86741263
C       -0.76144924       2.23541170       0.98152742
C       -1.77103499       2.64116599       1.89469171
C       -2.42479331       1.47708985       2.27587339
O       -1.87459239       0.39951551       1.65209977
C       -3.49216739       1.43066008       3.16759541
C       -3.91963961       2.66649140       3.69814080
C       -3.28198375       3.88807515       3.33930436
C       -2.20167705       3.86711488       2.43575751
C       -3.73655199       5.10028777       3.88278055
C       -4.81639805       5.15302493       4.77095496
C       -5.41866174       3.94181479       5.09443765
C       -5.01360319       2.70824594       4.60420404
C       -5.89618941       1.76444182       5.20260098
C       -6.78785489       2.46644443       5.99523655
O       -6.48475916       3.80076265       5.92553108
C       -7.87550245       1.95458377       6.77232447
O       -8.10582455       0.61471880       6.94276147
C       -9.21831842       0.47921271       7.71209117
C       -9.73451201       1.72256577       8.04946568
C       -8.85258539       2.66491725       7.44820545
C      -10.91609337       1.77387512       8.83720292
C      -11.47639385       3.02178201       9.18396895
C      -12.64144633       2.98623938       9.94421027
O      -13.33536449       4.07743238      10.36982396
C      -14.40418055       3.61630072      11.07204912
C      -14.40559023       2.23999591      11.10603314
C      -13.26272459       1.82106118      10.37385644
C      -12.69082411       0.58239588      10.02767143
C      -11.51443784       0.55076704       9.25337904
C      -10.93194303      -0.67285821       8.88560829
C       -9.77196814      -0.73463454       8.10526988
H       -0.04889953       2.86651204       0.47008021
H       -3.95888269       0.48683646       3.42044045
H       -1.70020915       4.78671822       2.14633435
H       -3.24981304       6.03630634       3.61184050
H       -5.17271273       6.08809496       5.18636361
H       -5.89960285       0.69214750       5.06505384
H       -8.92213462       3.74320457       7.48487923
H      -11.04500292       3.96740933       8.88019001
H      -15.13783536       1.61269115      11.59364380
H      -13.16581032      -0.33826713      10.35586607
H      -11.38594466      -1.61047030       9.20359590
H       -9.32492980      -1.67803066       7.81543022
C      -15.39304556       4.46171723      11.68931481
C      -16.22122000       5.16975356      12.20627482
Br     -17.56030802       6.31458842      13.04215543
C        0.86741263      -0.86741263       0.86741263
C        0.60914882      -2.18126686       1.18797269
C        1.68023263      -2.60998306       2.01667700
C        2.52165785      -1.51282757       2.14327113
O        2.02668702      -0.45398150       1.44553916
C        3.70278338      -1.50847784       2.87916166
C        4.04421407      -2.71681137       3.52324636
C        3.21462168      -3.86994595       3.42479564
C        2.02750946      -3.80775453       2.66928546
C        3.58744733      -5.05734554       4.07482745
C        4.76795177      -5.15258826       4.81983791
C        5.55645306      -4.00899306       4.88946806
C        5.24250303      -2.80105632       4.28249382
C        6.31216468      -1.92577534       4.62529219
C        7.21333224      -2.64355879       5.39264484
O        6.73946338      -3.91911058       5.55247894
C        8.45601092      -2.19939627       5.94700350
O        8.87349761      -0.89545298       5.89435422
C       10.09255439      -0.82533841       6.49172949
C       10.49258245      -2.07780146       6.93615955
C        9.42334072      -2.95210718       6.59026018
C       11.75881719      -2.19868563       7.56966859
C       12.20292596      -3.46074641       8.01847244
C       13.45983143      -3.49742007       8.61464447
O       14.06592657      -4.61485555       9.10183871
C       15.27310403      -4.22714530       9.59228106
C       15.45088797      -2.87174938       9.42898193
C       14.27642177      -2.38850459       8.79271586
C       13.81985428      -1.13378937       8.34724777
C       12.55818690      -1.03129492       7.72910211
C       12.08626069       0.20747482       7.26590723
C       10.84360178       0.33647378       6.63547547
H       -0.24216778      -2.76294929       0.86471028
H        4.31478004      -0.61687582       2.93450374
H        1.37918679      -4.67517292       2.57890201
H        2.95417939      -5.94068066       4.00309983
H        5.06056482      -6.06980349       5.31680300
H        6.42953394      -0.89054654       4.33672370
H        9.36246336      -4.01621031       6.77154476
H       11.61811694      -4.36551120       7.90897410
H       16.31766685      -2.29957670       9.72692676
H       14.44784259      -0.25671717       8.47884951
H       12.69430010       1.10291260       7.38768276
H       10.48087427       1.29046799       6.27192308
C       16.22679672      -5.12147920      10.19580167
C       17.02551435      -5.87048384      10.70125018
Br      18.31697321      -7.08156099      11.51851767
