181
Properties=species:S:1:pos:R:3 pbc="F F F"
C        0.00000000       0.00000000       0.00000000
C        0.86741263       0.86741263      -0.86741263
C        2.17550691       0.59957536      -1.20330609
C        2.60369498       1.66978136      -2.03341634
C        1.51311078       2.52212856      -2.14251721
O        0.45870925       2.03454491      -1.43295351
C        1.50880273       3.70332337      -2.87829679
C        2.70585149       4.02599792      -3.55242240
C        3.85228089       3.18526102      -3.47182135
C        3.79452050       2.00551350      -2.70451545
C        5.02555398       3.53460736      -4.15945898
C        5.10714472       4.69242118      -4.94081204
C        3.96694284       5.48656241      -5.00140893
C        2.78000945       5.20752154      -4.33852219
C        1.90656782       6.28024034      -4.67642405
C        2.59248861       7.12844974      -5.52859752
O        3.85652694       6.63544464      -5.71908131
C        2.12150025       8.32654186      -6.15436859
O        0.90417996       8.88800251      -5.87112235
C        0.76663300       9.99498157      -6.64800773
C        1.88374274      10.17004222      -7.45275849
C        2.75473843       9.09529897      -7.11567069
C        1.90526181      11.27112466      -8.35078494
C        3.01884017      11.46844443      -9.19486022
C        2.95620818      12.56029643     -10.05539137
O        3.92103000      12.91273615     -10.94885468
C        3.47559809      14.02397584     -11.59295646
C        2.23545387      14.39331682     -11.12284859
C        1.88890340      13.44604689     -10.12269192
C        0.78677081      13.24308324      -9.27103738
C        0.78639143      12.15113883      -8.38105365
C       -0.30672861      11.92129340      -7.53012831
C       -0.34057995      10.83677701      -6.64640642
Br       4.42590629      14.91316497     -12.92993169
H        2.75216057      -0.26009943      -0.89343065
H        0.62120880       4.32198178      -2.92296902
H        4.65632282       1.34785650      -2.62908239
H        5.90488135       2.89467822      -4.09840031
H        6.00950133       4.96033808      -5.47733190
H        0.88460480       6.41965832      -4.35254107
H        3.73029499       8.88725051      -7.53267293
H        3.88226327      10.81492241      -9.19541658
H        1.64939482      15.23701550     -11.45776000
H       -0.05644766      13.92733902      -9.31251790
H       -1.16363688      12.59337177      -7.54933537
H       -1.18598108      10.65453939      -5.99377106
C       -0.86741263      -0.86741263      -0.86741263
C       -2.11991377      -0.52969493      -1.32877966
C       -2.57030611      -1.62884991      -2.10773667
C       -1.54817965      -2.56743973      -2.06213718
O       -0.51413972      -2.10459352      -1.30747443
C       -1.58502934      -3.80191961      -2.70347393
C       -2.74998457      -4.08717425      -3.44711298
C       -3.82640008      -3.15822862      -3.52473457
C       -3.73037720      -1.92730376      -2.84686849
C       -4.96889206      -3.47289772      -4.27783053
C       -5.08573319      -4.68137267      -4.97327209
C       -4.01320031      -5.56190155      -4.87981232
C       -2.86102430      -5.32016316      -4.14486571
C       -2.05542199      -6.48006054      -4.32774968
C       -2.74205718      -7.34089027      -5.16658843
O       -3.94332735      -6.77082474      -5.49690080
C       -2.32486474      -8.61849593      -5.65905002
O       -1.18266263      -9.24544174      -5.23520045
C       -1.07790555     -10.41963554      -5.91208121
C       -2.14141883     -10.57496864      -6.79015599
C       -2.94436279      -9.41331153      -6.60803376
C       -2.18507177     -11.74118688      -7.60091276
C       -3.24392203     -11.92213262      -8.51609017
C       -3.20603375     -13.08247840      -9.28338383
O       -4.12603789     -13.43289470     -10.22368824
C       -3.72573023     -14.62375818     -10.74304198
C       -2.55924730     -15.04618946     -10.14618253
C       -2.21294754     -14.04907073      -9.19562394
C       -1.16558282     -13.86102764      -8.27428096
C       -1.14307752     -12.70294834      -7.47255807
C       -0.10240906     -12.48756856      -6.55471548
C       -0.04677587     -11.33992027      -5.75590735
Br      -4.64173138     -15.54504157     -12.08223000
H       -2.64593308       0.39370688      -1.13326559
H       -0.75033940      -4.48761892      -2.62820128
H       -4.53856886      -1.20228089      -2.89241196
H       -5.79486410      -2.76534306      -4.33775273
H       -5.96377316      -4.92325273      -5.56014542
H       -1.07582094      -6.66946922      -3.91151403
H       -3.86516402      -9.16685440      -7.11820001
H       -4.04830639     -11.20732828      -8.63696758
H       -2.02067437     -15.95648092     -10.36701502
H       -0.38061259     -14.60829046      -8.19450621
H        0.69547663     -13.22194052      -6.45260637
H        0.75884078     -11.16934565      -5.05182449
C       -0.86741263       0.86741263       0.86741263
C       -0.72860490       2.22857009       1.02121337
C       -1.75147655       2.63729198       1.91812416
C       -2.44571050       1.48168398       2.25036206
O       -1.90740080       0.40642146       1.61238541
C       -3.53765077       1.44067016       3.11210195
C       -3.94663394       2.67321319       3.66442468
C       -3.26758145       3.88613502       3.35564679
C       -2.16417176       3.85976843       2.48060926
C       -3.70461249       5.09546829       3.91953954
C       -4.80630999       5.15398130       4.78008666
C       -5.44876683       3.95139947       5.05474787
C       -5.06321151       2.72066220       4.54217947
C       -5.98618464       1.78563793       5.09140963
C       -6.88016499       2.49038194       5.87898893
O       -6.54028287       3.81739183       5.85337819
C       -8.00151533       1.98783366       6.61306170
O       -8.27154448       0.65066268       6.74109765
C       -9.40760845       0.52507684       7.47693701
C       -9.89983025       1.77261855       7.83409466
C       -8.97747708       2.70628439       7.28194661
C      -11.10051329       1.83509818       8.59155994
C      -11.63694459       3.08813556       8.95706466
C      -12.82265313       3.06410191       9.68514094
O      -13.49886287       4.16207359      10.12168437
C      -14.59803637       3.71167947      10.78281455
C      -14.63658668       2.33549818      10.77953442
C      -13.48576920       1.90523913      10.06663389
C      -12.93751863       0.66110790       9.70226489
C      -11.74187244       0.61808135       8.95863013
C      -11.18205576      -0.61073879       8.57337613
C      -10.00343929      -0.68328862       7.82245282
Br     -15.87118682       4.81989109      11.57792505
H        0.01387238       2.85342102       0.54594316
H       -4.03570897       0.50347961       3.32697102
H       -1.63103441       4.77277924       2.22944806
H       -3.18626118       6.02479432       3.68690437
H       -5.14898975       6.08708399       5.21109756
H       -6.01409937       0.71781939       4.92488543
H       -9.01958865       3.78471881       7.34591097
H      -11.17276134       4.02942390       8.69041701
H      -15.39800114       1.71559988      11.23056929
H      -13.44526906      -0.25469808       9.99283828
H      -11.66900672      -1.54378038       8.85384391
H       -9.57371384      -1.63046869       7.51908421
C        0.86741263      -0.86741263       0.86741263
C        0.59683639      -2.17379045       1.20776152
C        1.67287681      -2.60563485       2.02838104
C        2.52947080      -1.51771204       2.13057371
O        2.03897739      -0.46148702       1.42574326
C        3.71976983      -1.51910945       2.85154361
C        4.05420221      -2.72352665       3.50654295
C        3.20909602      -3.86721789       3.43304936
C        2.01339410      -3.79945913       2.69169622
C        3.57525503      -5.05102718       4.09333810
C        4.76380472      -5.15187958       4.82469364
C        5.56734272      -4.01756649       4.87000497
C        5.26085099      -2.81343011       4.25177208
C        6.34560870      -1.94753307       4.57009044
C        7.24737412      -2.66701651       5.33514524
O        6.75967273      -3.93437858       5.51700158
C        8.50241321      -2.23171585       5.86828163
O        8.93545129      -0.93391531       5.79393822
C       10.16274521      -0.87176765       6.37510944
C       10.55268990      -2.12354158       6.83031197
C        9.46832501      -2.98850756       6.50887552
C       11.82522616      -2.25250786       7.44943738
C       12.25918006      -3.51438083       7.90858392
C       13.52296796      -3.55949817       8.48942984
O       14.12117413      -4.67833768       8.98310902
C       15.33920439      -4.29982961       9.45349639
C       15.53182087      -2.94893514       9.27086328
C       14.35552880      -2.45886035       8.64325306
C       13.90906861      -1.20413260       8.18769022
C       12.64106362      -1.09341903       7.58410127
C       12.17882385       0.14533863       7.11120788
C       10.92999995       0.28215871       6.49476223
Br      16.57012805      -5.46429707      10.23457782
H       -0.26569738      -2.74865244       0.90253673
H        4.34350361      -0.63469617       2.88795982
H        1.35319891      -4.65967082       2.62039199
H        2.93014935      -5.92711050       4.04070002
H        5.05120213      -6.06644429       5.32952487
H        6.47223783      -0.91755549       4.26701086
H        9.39646163      -4.04940899       6.70434782
H       11.66178042      -4.41297488       7.81784695
H       16.40937558      -2.38409308       9.55070166
H       14.54957442      -0.33349676       8.30033809
H       12.79948900       1.03446669       7.21404795
H       10.57464550       1.23604923       6.12373309
