194
Properties=species:S:1:pos:R:3 pbc="F F F"
C        6.57459709      -3.61166655      11.71176852
C        6.13904948      -3.64008559      10.28663968
C        7.06990304      -4.02646256       9.25671843
H        8.06113556      -4.34231114       9.57562146
C        6.85637589      -4.08575259       7.80328086
C        6.50601525      -2.91210456       7.11704255
C        6.34589620      -2.92589872       5.73057392
C        5.94980082      -1.73964800       5.03736652
C        5.57213010      -0.76896494       4.43883270
C        5.03060712       0.42932402       3.65645689
C        4.54601823       1.33002923       3.02648884
C        3.91053509       2.35963314       2.26496639
C        3.62168440       3.59127602       2.84863782
C        2.96553153       4.57719077       2.10721436
C        2.54229770       4.32996382       0.79445175
C        2.89134572       3.10546440       0.18825326
C        3.56361549       2.12459039       0.93311802
C        2.57409956       2.83647681      -1.22249092
H        2.99527428       3.55804382      -1.91915440
C        1.77278313       1.77278313      -1.77278313
C        1.60351013       1.62190074      -3.24569787
N        1.96971926       5.38637652       0.05706731
C        6.56802550      -4.10416444       5.01917262
C        6.92575369      -5.27218217       5.69597242
C        7.01874468      -5.29376504       7.09335806
N        7.47702056      -6.46925649       7.72251562
Br       4.32258503      -3.47060893       9.94655585
H        5.85907812      -3.08446003      12.35112011
H        7.53795895      -3.10066445      11.81312769
H        6.68573627      -4.63108724      12.09602751
H        6.36298449      -1.98340538       7.66519175
H        3.90640679       3.79481567       3.87786656
H        2.77218533       5.54047392       2.57118553
H        3.81951278       1.17283286       0.47232747
H        2.33379002       2.21789102      -3.80276265
H        0.60349350       1.94591673      -3.55281354
H        1.73628762       0.57755418      -3.54731837
H        1.47677539       6.05604356       0.64006611
H        1.38112766       5.05352312      -0.70198237
H        6.46948009      -4.12155090       3.93645907
H        7.11990938      -6.17314034       5.12068499
H        7.17292083      -6.53270021       8.69044075
H        7.24363388      -7.31243810       7.20666825
C       13.15443316       0.10926188      -4.51485706
C       11.92461258      -0.33647541      -3.80046137
C       11.63289946      -1.74227075      -3.67735076
H       12.36896413      -2.43917928      -4.07298781
C       10.46886478      -2.38557371      -3.05063352
C        9.18629979      -2.11149971      -3.55166822
C        8.06658186      -2.74530504      -3.01070038
C        6.75713716      -2.43549607      -3.49442738
C        5.64423726      -2.15743560      -3.85113413
C        4.21255565      -1.77938340      -4.23664651
C        3.07911931      -1.45780197      -4.47087597
C        1.72527944      -1.04941727      -4.68106401
C        1.41642174      -0.11423766      -5.66650668
C        0.09532166       0.30714770      -5.83797730
C       -0.92441512      -0.15701383      -4.99638081
C       -0.61767984      -1.14887397      -4.04200306
C        0.70850318      -1.57928551      -3.88430553
C       -1.66774878      -1.75550956      -3.20980895
H       -2.46601724      -2.23040681      -3.77604845
C       -1.77278313      -1.77278313      -1.77278313
C       -2.88799862      -2.49029905      -1.09281108
N       -2.25398521       0.22424215      -5.26928542
C        8.22596481      -3.68107107      -1.98958218
C        9.50049934      -3.96419372      -1.49390473
C       10.62646092      -3.28366568      -1.97441683
N       11.90022612      -3.67310953      -1.51236504
Br      10.98786635       0.94258497      -2.83587157
H       13.13531264       1.18064989      -4.73946051
H       13.26329044      -0.41994363      -5.46751362
H       14.04232435      -0.09400201      -3.90694387
H        9.06116453      -1.40564392      -4.36990797
H        2.19557829       0.28933121      -6.30826541
H       -0.13002772       1.01735086      -6.62879686
H        0.95005210      -2.33262074      -3.13744952
H       -3.41084957      -3.16935135      -1.77424276
H       -3.62216296      -1.77755485      -0.70250596
H       -2.51194758      -3.09115809      -0.25805450
H       -2.32312768       1.13780006      -5.70742522
H       -2.85030494       0.16203066      -4.44835887
H        7.36362578      -4.19869509      -1.57640079
H        9.60583674      -4.71561097      -0.71630983
H       12.58869969      -2.93123200      -1.60724756
H       11.88361209      -4.04193321      -0.56620641
C       -7.24249689      -5.43443460     -10.55690028
C       -6.67270578      -5.27100888      -9.18937269
C       -7.45539680      -5.63361055      -8.03506420
H       -8.43368148      -6.07420532      -8.21627321
C       -7.09943129      -5.51889636      -6.61319249
C       -6.81090419      -4.25150842      -6.08252763
C       -6.51897247      -4.10389645      -4.72565246
C       -6.18583776      -2.81894586      -4.19410561
C       -5.85724953      -1.75910458      -3.73381248
C       -5.37293987      -0.43900273      -3.13046288
C       -4.92815393       0.56505795      -2.64365326
C       -4.33505478       1.72493127      -2.05478422
C       -4.23440875       2.91012322      -2.78020937
C       -3.61816111       4.02660064      -2.20925381
C       -3.04821043       3.96042790      -0.93082857
C       -3.20705204       2.77894930      -0.17744447
C       -3.84011182       1.66556490      -0.75058887
C       -2.73039658       2.69146659       1.21120412
H       -3.15698441       3.43900587       1.87648222
C       -1.77278313       1.77278313       1.77278313
C       -1.44912288       1.79467133       3.22731454
N       -2.52250016       5.13830818      -0.36177986
C       -6.54703568      -5.21644785      -3.88589940
C       -6.84255024      -6.47796978      -4.40698135
C       -7.06534707      -6.65536016      -5.77836532
N       -7.45506859      -7.92883378      -6.24098635
Br      -4.86011512      -4.89451675      -9.06017813
H       -6.65061244      -4.91179283     -11.31532163
H       -8.25956937      -5.03098831     -10.60441425
H       -7.28172264      -6.49458038     -10.82852072
H       -6.81931339      -3.37633159      -6.72859444
H       -4.63565936       2.97609848      -3.78840193
H       -3.57239377       4.94966653      -2.78058658
H       -3.94931337       0.74761851      -0.17691371
H       -2.18174805       2.37377854       3.79891708
H       -0.46412532       2.24294550       3.39515295
H       -1.44185188       0.78002982       3.63927847
H       -2.16057619       5.78671520      -1.05453855
H       -1.83255763       4.94479949       0.35927602
H       -6.34459087      -5.11024495      -2.82287581
H       -6.88508651      -7.32769506      -3.73130740
H       -7.23950627      -8.06462971      -7.22509669
H       -7.08613614      -8.68692910      -5.67467951
C      -13.43419341      -1.34740036       3.33795506
C      -12.11647208      -1.62822040       2.70057589
C      -11.69363425      -2.98970907       2.49064722
H      -12.39522479      -3.77566354       2.76276421
C      -10.43097011      -3.47967855       1.91863401
C       -9.22194013      -3.14814691       2.55066135
C       -8.01101972      -3.63977706       2.06066623
C       -6.77704049      -3.26908108       2.68074570
C       -5.72518807      -2.93460579       3.15491475
C       -4.36791253      -2.47768977       3.69369702
C       -3.28961743      -2.08760786       4.05156820
C       -1.99816238      -1.59147251       4.41189170
C       -1.85291792      -0.72447951       5.49276099
C       -0.59198997      -0.21467882       5.81281909
C        0.52900797      -0.51956523       5.02923656
C        0.38833826      -1.44538857       3.97483003
C       -0.87795471      -1.96576861       3.66727395
C        1.55118909      -1.89011550       3.19176269
H        2.33979600      -2.34696644       3.78571006
C        1.77278313      -1.77278313       1.77278313
C        2.99777476      -2.33570097       1.13763301
N        1.79369146      -0.05782104       5.44751598
C       -8.00492715      -4.49217940       0.95743620
C       -9.20562198      -4.83251801       0.33070307
C      -10.42196753      -4.28969912       0.76389000
N      -11.61528419      -4.73848906       0.16204358
Br     -11.22083488      -0.19819256       1.92806257
H      -13.52726209      -0.30179315       3.64896691
H      -13.57263042      -1.96515400       4.23164323
H      -14.24895608      -1.56745120       2.64012641
H       -9.22552724      -2.50898681       3.43092779
H       -2.71363166      -0.44284439       6.09414318
H       -0.49424796       0.43927736       6.67499904
H       -0.99154099      -2.66771059       2.84384857
H        3.52154566      -3.02754830       1.80534972
H        3.69566016      -1.53464424       0.87191936
H        2.74435507      -2.88938140       0.22742371
H        1.74692329       0.81638397       5.96221352
H        2.45737132       0.00045128       4.67971311
H       -7.07003915      -4.90040032       0.58110894
H       -9.18165749      -5.51888439      -0.51114286
H      -12.37156212      -4.06568779       0.25565420
H      -11.49020511      -5.02037602      -0.80564338
C       -0.00445707       0.01189536      -1.78238275
H       -0.66409135       0.67374010      -2.43557963
H        0.65740317      -0.63156657      -2.45157240
C       -0.90989263      -0.90692880      -0.91072765
C        0.90977584       0.90977584      -0.90977584
C       -0.00465871       1.77757030       0.00794375
H       -0.66225468       2.44313916      -0.64384735
H        0.64322798       2.43503045       0.67728295
C       -1.78241447       0.00034974      -0.00472694
H       -2.45427497      -0.65498947       0.64260836
H       -2.43311707       0.67328779      -0.65473579
C       -0.91132561       0.90220522       0.91563759
C       -0.01476271      -0.02253852       1.78660255
H       -0.67934791      -0.69751639       2.42135241
H        0.63392994       0.61504881       2.47327442
C        0.01484550      -1.77751727      -0.01636693
H        0.67870853      -2.42144646      -0.68295456
H       -0.62264859      -2.45592969       0.64226336
C        1.78714474       0.01002794       0.00389507
H        2.44202412       0.67113390       0.66197326
H        2.45385902      -0.65136977      -0.64189061
C        0.91606151      -0.90478549       0.90901405
