141
Properties=species:S:1:pos:R:3 pbc="F F F"
C        0.00000000       0.00000000       0.00000000
C        0.85559745       0.85559745      -0.85559745
H        0.39891556       1.76010478      -1.23250908
C        2.19384658       0.47420351      -1.18835755
H        2.58410668      -0.46874029      -0.81332078
C        3.09680297       1.24048973      -2.04852666
C        3.81517652       2.30593820      -1.48029223
C        4.69960336       3.09059307      -2.24077037
C        4.83457538       2.77388543      -3.60216265
C        4.11135653       1.72718996      -4.18167035
C        3.24022230       0.94495015      -3.41409376
C        2.44911051      -0.14619864      -4.08157184
C        5.46258372       4.20405534      -1.63802150
C        5.60982743       5.42901432      -2.30368613
C        6.34480394       6.47555824      -1.74155436
C        6.96085562       6.33374002      -0.48985655
C        6.82680165       5.11593101       0.20386737
C        6.07427234       4.07659340      -0.37752676
C        7.41845872       4.92004106       1.53815234
H        7.50845238       5.80546416       2.16183216
C        7.90342168       3.68876781       2.09355296
H        7.92924589       2.75860223       1.54132309
Br       8.59422609       3.62184279       3.80371744
C        7.74858794       7.49247315       0.06072917
H        3.67150179       2.53166165      -0.42440556
H        5.51796767       3.33984303      -4.23214226
H        4.23900470       1.52677470      -5.24353725
H        2.48076378      -1.06976760      -3.49550162
H        2.85592699      -0.38323716      -5.07099146
H        1.40957118       0.17007152      -4.20909992
H        5.14035381       5.58833451      -3.27227093
H        6.43268815       7.40799047      -2.29570426
H        5.96334915       3.13664714       0.16040997
H        7.81666771       8.31268182      -0.66221311
H        8.77282538       7.18270519       0.29481503
H        7.26762701       7.88685633       0.96184021
C       -0.85559745      -0.85559745      -0.85559745
H       -1.72886753      -0.38134435      -1.28131754
C       -0.55326903      -2.23832160      -1.06481701
H        0.31653653      -2.66972256      -0.57550114
C       -1.35671200      -3.16217897      -1.86692840
C       -1.16750051      -3.17479586      -3.25911058
C       -1.90218055      -4.03111144      -4.09767481
C       -2.84575360      -4.87500182      -3.48986805
C       -3.05456276      -4.85801477      -2.10763932
C       -2.31112987      -4.00870975      -1.27942659
C       -2.59262623      -3.98972227       0.19786479
C       -1.69337258      -4.05030380      -5.56098418
C       -2.77586795      -4.11741055      -6.44924938
C       -2.57791769      -4.15234874      -7.83165011
C       -1.28623693      -4.12159319      -8.37662206
C       -0.17980343      -4.05018887      -7.50887300
C       -0.40239811      -4.00750696      -6.11848743
C        1.19854708      -3.97670204      -8.02219248
H        1.32995610      -3.49471918      -8.98732130
C        2.38156959      -4.48880644      -7.39139968
H        2.36518114      -5.04707516      -6.46463100
Br       4.04185579      -4.28333195      -8.17087528
C       -1.13457434      -4.17221702      -9.87354056
H       -0.43802992      -2.49381655      -3.69572253
H       -3.42979438      -5.56856605      -4.09159252
H       -3.80564317      -5.52088715      -1.68278632
H       -1.66374793      -4.01838898       0.77563911
H       -3.18275120      -4.86182508       0.50089499
H       -3.15783837      -3.09021486       0.45931062
H       -3.79641749      -4.13238559      -6.07215616
H       -3.44861032      -4.20550391      -8.48226864
H        0.45142924      -3.94502637      -5.44598919
H       -2.09906730      -4.32145790     -10.37103743
H       -0.48837167      -5.00720714     -10.16513672
H       -0.71368653      -3.23265939     -10.24629721
C       -0.85559745       0.85559745       0.85559745
H       -0.39374199       1.24612543       1.75166199
C       -2.22405315       1.10885663       0.52349786
H       -2.64480886       0.65355822      -0.36967991
C       -3.14786324       1.91414074       1.32381539
C       -3.11975817       3.31056946       1.17107932
C       -3.97332534       4.15226739       1.90537406
C       -4.85709831       3.54288438       2.81064078
C       -4.88109694       2.15578430       2.98333561
C       -4.03403936       1.32484016       2.24038668
C       -4.06039328      -0.15917643       2.48326685
C       -3.94944967       5.62045133       1.73475955
C       -4.02222810       6.48210176       2.83819803
C       -4.01645008       7.86956789       2.67589858
C       -3.93770505       8.44651119       1.40023595
C       -3.85947487       7.60586418       0.27352625
C       -3.85836850       6.20958216       0.46044185
C       -3.73655686       8.15227517      -1.08848459
H       -3.22666924       9.10742780      -1.18201266
C       -4.23334193       7.56575984      -2.30046525
H       -4.81544960       6.65390275      -2.32282733
Br      -3.96426841       8.38190593      -3.93382290
C       -3.94588229       9.94764285       1.28680679
H       -2.40881931       3.74766988       0.47107981
H       -5.55013461       4.14748183       3.39233652
H       -5.57420856       1.72940332       3.70570477
H       -4.07940139      -0.71196574       1.53906215
H       -4.95522759      -0.45417490       3.04262860
H       -3.18309237      -0.45864496       3.06429521
H       -4.07375298       6.07946635       3.84773992
H       -4.07580635       8.49880069       3.56177584
H       -3.79069888       5.55780598      -0.40891854
H       -4.10765982      10.42398123       2.25992160
H       -4.75580242      10.27762045       0.62729266
H       -2.98630715      10.30620043       0.90013554
C        0.85559745      -0.85559745       0.85559745
H        1.89143682      -0.55833174       0.94176086
C        0.33687908      -2.02715660       1.49237196
H       -0.70398090      -2.29856204       1.33410604
C        1.11454125      -2.94392158       2.32735654
C        1.31337638      -2.61036456       3.67766602
C        2.05067056      -3.43730306       4.54299318
C        2.59280860      -4.61477695       4.00303791
C        2.41600416      -4.94746726       2.65674543
C        1.67183220      -4.12254134       1.80489267
C        1.53779851      -4.49321483       0.35347038
C        2.24909076      -3.08956810       5.96600171
C        3.49303029      -3.25985119       6.58964640
C        3.67628625      -2.94693362       7.93869667
C        2.61860120      -2.45126884       8.71458214
C        1.35868356      -2.26610169       8.11408004
C        1.19802310      -2.58014649       6.75022292
C        0.22003631      -1.71340155       8.86690958
H        0.46124249      -1.02141848       9.66942341
C       -1.17042416      -2.00513659       8.66392410
H       -1.52526448      -2.72931403       7.94247547
Br      -2.47340131      -1.19557058       9.69018217
C        2.87318524      -2.14150817      10.16563851
H        0.89122129      -1.68026849       4.05607921
H        3.15854585      -5.29790177       4.63350533
H        2.86547022      -5.86396783       2.27987860
H        0.50240660      -4.38913284       0.01495836
H        1.82517399      -5.53658638       0.18192091
H        2.18707886      -3.85789683      -0.25623309
H        4.34523501      -3.63142901       6.02429522
H        4.65962091      -3.09660526       8.38015671
H        0.22653113      -2.43093184       6.28212334
H        3.88259518      -2.43924814      10.46971932
H        2.16970327      -2.68783952      10.80317274
H        2.77791094      -1.06618106      10.34855113
