165
Properties=species:S:1:pos:R:3 pbc="F F F"
C        0.00000000       0.00000000       0.00000000
C        0.88137980       0.88137980      -0.88137980
C        0.34171199       2.00566977      -1.49677955
C        1.15119649       2.81018213      -2.30754633
C        2.51147481       2.51144258      -2.51219591
C        3.02667887       1.36822466      -1.87273793
C        2.22069752       0.55645186      -1.06669430
C        3.36761864       3.36477711      -3.36422850
C        3.26709631       4.75873683      -3.33895724
C        4.09541135       5.51141247      -4.15392507
N        5.01912874       4.98389875      -4.98241458
C        5.13793196       3.62953584      -5.01897201
C        4.32334374       2.81040380      -4.23067961
C        6.16459032       3.07322258      -5.93608991
N        6.25778222       1.71811433      -5.99824955
C        7.16833023       1.19028256      -6.83993383
C        8.00955499       1.94283344      -7.64170776
C        7.94076347       3.33870607      -7.58725704
C        6.99756768       3.89238621      -6.70536278
C        8.81545946       4.19217638      -8.42547965
C       10.14506703       3.82788093      -8.70858070
C       10.97033694       4.62757204      -9.50917185
C       10.47705046       5.81859242     -10.03290935
C        9.17135671       6.21101596      -9.76838269
C        8.34837053       5.40165782      -8.97583986
H       -0.70443555       2.26539526      -1.35926103
H        0.69760723       3.67194346      -2.79218752
H        4.07534908       1.09937934      -1.98697690
H        2.65162742      -0.32052007      -0.59027498
H        2.56398902       5.26592097      -2.68572620
H        4.03728478       6.59684492      -4.15651691
H        4.43307329       1.73088226      -4.30477791
H        7.20497282       0.10353211      -6.85998643
H        8.69593634       1.43209645      -8.30907422
H        6.90807071       4.97118468      -6.60549860
H       10.56728890       2.91381319      -8.29587040
H       11.99002068       4.31311773      -9.70981386
H        8.77684167       7.13982191     -10.17233068
H        7.32416228       5.72782906      -8.80364553
C       11.32418259       6.64597805     -10.85229948
C       12.03365574       7.33891352     -11.53853871
Br      13.18081382       8.45933156     -12.64812950
C       -0.88137980      -0.88137980      -0.88137980
C       -1.22714573      -0.45716902      -2.15984656
C       -2.03859905      -1.26562416      -2.96470175
C       -2.51218242      -2.51136509      -2.51156579
C       -2.14154775      -2.91199316      -1.21410056
C       -1.33634295      -2.10503776      -0.40246298
C       -3.36472463      -3.36762642      -3.36427319
C       -3.12150298      -3.50990211      -4.73338529
C       -3.94774193      -4.32730753      -5.48569942
N       -4.98843196      -5.01845645      -4.97855365
C       -5.24003425      -4.89909109      -3.64731447
C       -4.45173680      -4.07993003      -2.83276033
C       -6.38875858      -5.67288819      -3.11225604
N       -6.66107900      -5.52472842      -1.78833868
C       -7.71244223      -6.20107794      -1.28502646
C       -8.52802878      -7.03295435      -2.03311307
C       -8.26147172      -7.21070523      -3.39454963
C       -7.16163214      -6.51273048      -3.92095405
C       -9.10368107      -8.08707125      -4.24236318
C       -9.65801227      -9.28044423      -3.74307216
C      -10.46292256     -10.10494012      -4.53921814
C      -10.71755939      -9.75052163      -5.86047121
C      -10.18132774      -8.58254972      -6.38687790
C       -9.38604835      -7.75747563      -5.58234423
H       -0.87796506       0.49867624      -2.54093192
H       -2.30946277      -0.89966647      -3.95260898
H       -2.46978153      -3.87211507      -0.81980872
H       -1.07184686      -2.44513598       0.59560051
H       -2.29204552      -3.00502205      -5.21856861
H       -3.78348187      -4.45451343      -6.55265130
H       -4.69866113      -3.99294439      -1.77712793
H       -7.89532049      -6.04943146      -0.22373940
H       -9.36894035      -7.51888290      -1.54928376
H       -6.89312939      -6.62304159      -4.96858301
H       -9.45950623      -9.59654655      -2.72091973
H      -10.87705777     -11.01657225      -4.11932225
H      -10.37386438      -8.29722522      -7.41790465
H       -8.99718280      -6.83930909      -6.01914498
C      -11.54050261     -10.59831257      -6.68364493
C      -12.22971755     -11.30833749      -7.37305292
Br     -13.34411983     -12.45638773      -8.48776734
C       -0.88137980       0.88137980       0.88137980
C       -2.01260106       0.34483450       1.48672576
C       -2.82124546       1.15618045       2.29149904
C       -2.51209466       2.51176857       2.51125007
C       -1.35895316       3.02250211       1.88618620
C       -0.55062839       2.21807408       1.07514121
C       -3.36352163       3.36705305       3.36604955
C       -3.91963283       2.88908523       4.55607232
C       -4.70634624       3.73273407       5.32166857
N       -4.97299803       5.01421804       4.99822600
C       -4.43745560       5.50189473       3.84708948
C       -3.64413991       4.69893662       3.02135063
C       -4.74242871       6.91655718       3.51491692
N       -4.23602951       7.39208717       2.34602942
C       -4.51771896       8.66731940       2.01350827
C       -5.28929123       9.51711318       2.78769179
C       -5.81191512       9.05492859       3.99988288
C       -5.51406154       7.72812222       4.35313291
C       -6.64622612       9.92099344       4.86589593
C       -6.38834643      11.29854064       4.99464159
C       -7.18185794      12.12102667       5.80419621
C       -8.24640250      11.57076363       6.51138610
C       -8.52517742      10.21387190       6.41170604
C       -7.73428374       9.39920384       5.59238063
H       -2.27963716      -0.69801967       1.33860325
H       -3.71055349       0.71500081       2.73618391
H       -1.06720338       4.06085401       2.03364794
H        0.33130442       2.64676914       0.60591761
H       -3.73858672       1.87593455       4.90111492
H       -5.15341960       3.38703076       6.25019625
H       -3.25261996       5.11860656       2.09750694
H       -4.09584325       9.00348388       1.06916423
H       -5.48589080      10.52214520       2.42907101
H       -5.87717984       7.31621583       5.29135832
H       -5.55001527      11.75488136       4.47207587
H       -6.95577897      13.18052295       5.87665034
H       -9.35409734       9.77435882       6.96053809
H       -7.99118197       8.34378852       5.52066637
C       -9.06139390      12.41231223       7.34875398
C       -9.74394919      13.11710918       8.05004959
Br     -10.84758338      14.25670625       9.18398527
C        0.88137980      -0.88137980       0.88137980
C        1.36008486      -2.09194369       0.39213277
C        2.16508988      -2.90009255       1.20374253
C        2.51122948      -2.51205253       2.51183129
C        2.01249170      -1.28002003       2.97512974
C        1.20176486      -0.47120300       2.17087583
C        3.36630974      -3.36346354       3.36685096
C        4.47240284      -4.04337038       2.84901716
C        5.24254253      -4.82433899       3.69386736
N        5.00128713      -4.97198746       5.01216747
C        3.93313317      -4.31485561       5.53845103
C        3.10682763      -3.51971530       4.73788422
C        3.69078421      -4.49033194       6.99278666
N        2.60193475      -3.86167523       7.51053611
C        2.35008221      -4.02402177       8.82444266
C        3.13032965      -4.79015894       9.67360760
C        4.26210641      -5.43735219       9.16726798
C        4.53172830      -5.26426078       7.79932760
C        5.13040850      -6.27183804      10.03086895
C        5.38406632      -5.92612549      11.37133686
C        6.19578219      -6.71879530      12.19250333
C        6.77949739      -7.87196117      11.67709367
C        6.55484051      -8.23922117      10.35669368
C        5.73382774      -7.44783164       9.54420883
H        1.11250855      -2.42113140      -0.61341922
H        2.50888630      -3.85074709       0.80210482
H        2.26084238      -0.92653101       3.97433193
H        0.83206616       0.47312492       2.56244109
H        4.74981869      -3.96318308       1.80263442
H        6.10675107      -5.36596794       3.31792760
H        2.24902053      -3.02835950       5.19135344
H        1.46758894      -3.50690697       9.19399544
H        2.83766016      -4.88534209      10.71410477
H        5.40648655      -5.72793295       7.35033449
H        4.96033163      -5.01901572      11.79762515
H        6.36645752      -6.42325425      13.22324049
H        7.00667960      -9.13780098       9.94451368
H        5.56198387      -7.77378169       8.51987131
C        7.61880300      -8.68677728      12.51687983
C        8.32172145      -9.36918577      13.22020074
Br       9.45828114     -10.47258258      14.35741117
