181
Properties=species:S:1:pos:R:3 pbc="F F F"
C        0.00000000       0.00000000       0.00000000
C        0.88131589       0.88131589      -0.88131589
C        2.19467944       0.50625537      -1.14264651
C        3.00179155       1.31870211      -1.94684708
C        2.51236627       2.51274537      -2.50927127
C        1.17811674       2.86172105      -2.22917313
C        0.36843828       2.05681716      -1.41951128
C        3.36982397       3.36841533      -3.35722344
C        3.34165839       4.76608850      -3.25214281
C        4.17175879       5.52826608      -4.06193018
N        5.03069964       5.00623205      -4.95877372
C        5.05386132       3.66239003      -5.05215485
C        4.25464736       2.81688188      -4.29454520
C        5.99477513       3.14123656      -5.99029960
C        6.79271459       2.68807779      -6.76457756
C        7.80723505       2.08688617      -7.74219149
C        8.58677766       1.59070861      -8.50870969
C        9.48829390       0.97474844      -9.42788036
N        9.77966313       1.71257661     -10.51704752
C       10.59897358       1.14414820     -11.42286203
C       11.13315183      -0.12951078     -11.28976701
C       10.82646569      -0.88926458     -10.15246717
C        9.98185403      -0.30254118      -9.19988521
C       11.35912771      -2.25568853      -9.97170572
C       12.69426246      -2.56817831     -10.28709453
C       13.19665596      -3.86423689     -10.12442647
C       12.36875841      -4.86964353      -9.63581153
C       11.04519365      -4.59155479      -9.31162687
C       10.54651263      -3.29541337      -9.48212306
H        2.60430041      -0.40980185      -0.72510186
H        4.03161742       1.01025314      -2.11750175
H        0.74461674       3.76643076      -2.65133484
H       -0.65718499       2.35680157      -1.22097759
H        2.69542407       5.26798427      -2.53877834
H        4.16931186       6.61308373      -4.00072251
H        4.32092530       1.74324396      -4.43981959
H       10.81914649       1.75411675     -12.29465084
H       11.76662788      -0.52202737     -12.07914536
H        9.71127725      -0.82907020      -8.29004259
H       13.36832688      -1.79688077     -10.65511735
H       14.23242690      -4.07314659     -10.37903513
H       10.39075597      -5.37144853      -8.93115344
H        9.50171610      -3.11029359      -9.23915560
C       12.88345790      -6.20372015      -9.46574089
C       13.31451872      -7.32100931      -9.32330673
Br      14.01150761      -9.12757139      -9.09300274
C       -0.88131589      -0.88131589      -0.88131589
C       -2.23809835      -0.60189158      -1.00359138
C       -3.04453270      -1.41453334      -1.80827470
C       -2.51206772      -2.51298951      -2.50932569
C       -1.13499746      -2.76619625      -2.36781721
C       -0.32493974      -1.96125780      -1.55856917
C       -3.36884388      -3.36942983      -3.35718903
C       -3.22032198      -4.76331045      -3.37625728
C       -4.05407711      -5.52758049      -4.18029745
N       -5.02641491      -5.01213733      -4.95715317
C       -5.16466126      -3.67221218      -4.93153276
C       -4.37274544      -2.82370899      -4.16962001
C       -6.22191181      -3.16145699      -5.74294248
C       -7.11755529      -2.71889380      -6.40892085
C       -8.25770368      -2.13189192      -7.24671711
C       -9.13783570      -1.64563319      -7.90272707
C      -10.16187730      -1.03882856      -8.69021684
N      -10.48681378      -1.70993711      -9.81253637
C      -11.42427401      -1.14427147     -10.59743834
C      -12.04474933       0.06359857     -10.31225730
C      -11.70217791       0.75397021      -9.14146057
C      -10.73407935       0.16860145      -8.31372016
C      -12.32441165       2.05029029      -8.80102353
C      -13.70251133       2.27000223      -8.98066958
C      -14.29064533       3.50051355      -8.66671376
C      -13.50631552       4.53173699      -8.16034787
C      -12.14168569       4.34448221      -7.96806226
C      -11.55791037       3.11419094      -8.28950288
H       -2.68170991       0.23898413      -0.47687464
H       -4.10657881      -1.18390550      -1.86888800
H       -0.66897816      -3.59336510      -2.90003907
H        0.73467508      -2.18606726      -1.46920199
H       -2.47672253      -5.26256661      -2.76289754
H       -3.95984370      -6.60951489      -4.21375951
H       -4.53676231      -1.75170735      -4.21551920
H      -11.66985888      -1.69957054     -11.49848465
H      -12.77354811       0.46140394     -11.01160170
H      -10.42848940       0.64237742      -7.38613765
H      -14.34229059       1.47497955      -9.35925242
H      -15.35793685       3.63847362      -8.81885221
H      -11.52100255       5.14534698      -7.57480531
H      -10.48456220       3.00156588      -8.14758178
C      -14.10905942       5.79834459      -7.83476381
C      -14.61385744       6.85912845      -7.56208715
Br     -15.43007313       8.57432624      -7.12119207
C       -0.88131589       0.88131589       0.88131589
C       -1.87100148       0.30351205       1.66906779
C       -2.68070367       1.11442738       2.47220970
C       -2.51327630       2.51163054       2.50947607
C       -1.50036131       3.06459154       1.70405807
C       -0.69234179       2.25923049       0.89319443
C       -3.37250067       3.36416279       3.35879928
C       -3.86032892       4.59679513       2.90276566
C       -4.67187595       5.35848289       3.73159621
N       -5.04025679       4.98355060       4.97189803
C       -4.56960161       3.79671251       5.40209208
C       -3.74380407       2.97018499       4.65208537
C       -5.00193223       3.41635637       6.70802269
C       -5.37002668       3.07626196       7.79908130
C       -5.83102622       2.61887401       9.18641248
C       -6.16947346       2.24185336      10.27486914
C       -6.53797213       1.77917706      11.57377350
N       -6.78431449       2.75161213      12.47336064
C       -7.09849200       2.34787051      13.71962129
C       -7.17068095       1.01706914      14.10565798
C       -6.91496853       0.01191856      13.16278119
C       -6.59607152       0.42225078      11.86087575
C       -6.96545742      -1.41887574      13.52856321
C       -7.98300993      -1.92681829      14.35698704
C       -8.02612728      -3.28015885      14.71087711
C       -7.05111341      -4.15017254      14.23398553
C       -6.03423724      -3.67926768      13.41029617
C       -5.99253351      -2.32405875      13.06474755
H       -2.02677459      -0.77213266       1.66495849
H       -3.46033910       0.63646383       3.06256938
H       -1.31791123       4.13759968       1.70687143
H        0.07943906       2.71878275       0.28125049
H       -3.63089506       4.96398501       1.90730661
H       -5.06292449       6.31741148       3.40278213
H       -3.39316000       2.03458987       5.07623899
H       -7.29064614       3.14702070      14.43024723
H       -7.40758596       0.77833783      15.13782208
H       -6.39703053      -0.30213545      11.07735455
H       -8.76787254      -1.27155137      14.73024229
H       -8.82470031      -3.64048530      15.35410043
H       -5.26723374      -4.35156775      13.03479488
H       -5.17459709      -1.97889185      12.43487287
C       -7.09396159      -5.54351677      14.59503383
C       -7.12984693      -6.71044257      14.89741177
Br      -7.18787050      -8.59726289      15.38633134
C        0.88131589      -0.88131589       0.88131589
C        2.17269122      -0.47348552       1.19740457
C        2.98007097      -1.28583113       2.00143865
C        2.51247707      -2.51264338       2.50926246
C        1.19997779      -2.89446387       2.17456926
C        0.39045553      -2.08955554       1.36475565
C        3.37017818      -3.36800318       3.35728137
C        3.39126029      -4.76166262       3.20696680
C        4.21977669      -5.52324435       4.01893401
N        5.03218236      -5.00389662       4.95962643
C        5.00824040      -3.66378713       5.09637867
C        4.20618462      -2.81969298       4.34019684
C        5.90124975      -3.14406959       6.08099195
C        6.65887380      -2.69144065       6.89505549
C        7.62153131      -2.09072485       7.92405655
C        8.35961224      -1.59545200       8.73113173
C        9.21075612      -0.98165603       9.69851055
N        9.49142577      -1.74520574      10.77265575
C       10.26243441      -1.18106604      11.72248335
C       10.75847674       0.11260831      11.64753963
C       10.46331616       0.89915393      10.52550604
C        9.66911957       0.31746940       9.52754789
C       10.95631370       2.28701285      10.40584405
C       12.26977338       2.63125526      10.77466056
C       12.73426872       3.94726641      10.66984323
C       11.88976175       4.94135071      10.18651536
C       10.58701032       4.63212984       9.81038525
C       10.12597750       3.31589695       9.92314177
H        2.56508467       0.46833906       0.82285482
H        3.99327300      -0.95057735       2.21552196
H        0.78321103      -3.82586325       2.55330806
H       -0.61794012      -2.41530490       1.12322939
H        2.78484687      -5.26015584       2.45718396
H        4.25488676      -6.60499775       3.92323360
H        4.23253417      -1.74983854       4.52161614
H       10.47469354      -1.81201687      12.58120367
H       11.35331981       0.49893596      12.46936201
H        9.41045750       0.86471508       8.62650722
H       12.95675572       1.87010509      11.13991284
H       13.75400887       4.18051801      10.96482458
H        9.91974773       5.40289967       9.43361281
H        9.09607032       3.10574147       9.64024926
C       12.36553756       6.29597428      10.07591536
C       12.76399979       7.43047152       9.98328787
Br      13.40827953       9.26485761       9.83351704
