194
Properties=species:S:1:pos:R:3 pbc="F F F"
C        1.79121992       1.79121992      -1.79121992
C        3.10458346       1.41615939      -2.05255053
C        3.91169558       2.22860614      -2.85675110
C        3.42227029       3.42264940      -3.41917530
C        2.08802076       3.77162507      -3.13907715
C        1.27834230       2.96672118      -2.32941530
C        4.27972799       4.27831935      -4.26712747
C        4.25156242       5.67599253      -4.16204684
C        5.08166282       6.43817011      -4.97183420
N        5.94060367       5.91613607      -5.86867774
C        5.96376534       4.57229406      -5.96205887
C        5.16455139       3.72678590      -5.20444922
C        6.90467915       4.05114058      -6.90020362
C        7.70261862       3.59798181      -7.67448158
C        8.71713908       2.99679019      -8.65209552
C        9.49668169       2.50061263      -9.41861371
C       10.39819792       1.88465246     -10.33778439
N       10.68956716       2.62248063     -11.42695154
C       11.50887760       2.05405222     -12.33276606
C       12.04305585       0.78039325     -12.19967104
C       11.73636971       0.02063945     -11.06237120
C       10.89175806       0.60736285     -10.10978923
C       12.26903173      -1.34578451     -10.88160975
C       13.60416649      -1.65827429     -11.19699855
C       14.10655998      -2.95433286     -11.03433049
C       13.27866243      -3.95973951     -10.54571556
C       11.95509768      -3.68165076     -10.22153089
C       11.45641665      -2.38550934     -10.39202708
Br      13.95403688      -5.71027797     -10.32255356
H        3.51420443       0.50010217      -1.63500589
H        4.94152145       1.92015716      -3.02740577
H        1.65452076       4.67633478      -3.56123887
H        0.25271904       3.26670560      -2.13088161
H        3.60532809       6.17788829      -3.44868236
H        5.07921589       7.52298776      -4.91062653
H        5.23082933       2.65314799      -5.34972361
H       11.72905051       2.66402077     -13.20455486
H       12.67653191       0.38787665     -12.98904938
H       10.62118127       0.08083382      -9.19994661
H       14.27823090      -0.88697674     -11.56502137
H       15.14233092      -3.16324257     -11.28893916
H       11.30065999      -4.46154451      -9.84105746
H       10.41162013      -2.20038956     -10.14905962
C       -1.79121992      -1.79121992      -1.79121992
C       -2.92738830      -1.25682739      -2.38907770
C       -3.73615166      -2.06844313      -3.19245804
C       -3.42289313      -3.42197228      -3.41922957
C       -2.26435540      -3.93093595      -2.80343165
C       -1.45569581      -3.12584952      -1.99293346
C       -4.28163199      -4.27567768      -4.26786514
C       -4.57206546      -5.60131687      -3.91621946
C       -5.39118540      -6.36179473      -4.73868700
N       -5.94795659      -5.90169721      -5.87576368
C       -5.66628214      -4.62616313      -6.20567300
C       -4.84987904      -3.79136287      -5.45454459
C       -6.29479084      -4.16140289      -7.39982963
C       -6.82913042      -3.75194349      -8.39400810
C       -7.50434004      -3.20582801      -9.65585674
C       -8.01315174      -2.75658589     -10.64617041
C       -8.58683033      -2.20354932     -11.83025512
N       -8.83410638      -3.09470900     -12.81018395
C       -9.34129300      -2.59888169     -13.95552120
C       -9.60537702      -1.25288549     -14.16485762
C       -9.34711347      -0.33303502     -13.13923186
C       -8.82771267      -0.84086423     -11.94033324
C       -9.59823120       1.11204600     -13.31867177
C      -10.75925094       1.57854842     -13.96218822
C      -10.99317158       2.94683669     -14.14022273
C      -10.06790194       3.87271651     -13.66945306
C       -8.91217877       3.44318175     -13.02598079
C       -8.68047349       2.07378839     -12.85624929
Br     -10.38138857       5.72099344     -13.90591734
H       -3.19808529      -0.21542245      -2.23580475
H       -4.62995970      -1.62828805      -3.63083664
H       -1.96747355      -4.96660325      -2.95801762
H       -0.56899475      -3.55116812      -1.53014338
H       -4.18328648      -6.04409669      -3.00451557
H       -5.63170340      -7.39165984      -4.48946693
H       -4.65838258      -2.77906019      -5.79625816
H       -9.53083256      -3.33310657     -14.73368701
H       -9.99199808      -0.93372207     -15.12773780
H       -8.61425077      -0.18750513     -11.10020580
H      -11.50768985       0.87653510     -14.32512078
H      -11.89930051       3.27440614     -14.64313315
H       -8.18294121       4.15955597     -12.65678770
H       -7.75854205       1.76501061     -12.36675875
C       -1.79121992       1.79121992       1.79121992
C       -1.23643297       2.45973960       2.87712082
C       -2.04780919       3.26301075       3.68623288
C       -3.42181447       3.41927465       3.42300586
C       -3.95137094       2.73293438       2.31441767
C       -3.14619797       1.92229050       1.50599032
C       -4.27508922       4.26813855       4.28194704
C       -5.57089479       3.87448022       4.64422677
C       -6.33162505       4.69938776       5.46065432
N       -5.89863872       5.87782458       5.94895418
C       -4.65153555       6.24807738       5.59850534
C       -3.81961024       5.49759762       4.77857864
C       -4.21338740       7.48680763       6.15582832
C       -3.82566222       8.51951749       6.62990230
C       -3.30730555       9.83124306       7.22747618
C       -2.88076658      10.86064330       7.67449815
C       -2.35635134      12.09061533       8.17366810
N       -3.27823301      13.04235364       8.41841268
C       -2.81200975      14.22836789       8.85531825
C       -1.46655920      14.50496378       9.05159715
C       -0.51450800      13.50833013       8.79654223
C       -0.99088921      12.26781962       8.35020131
C        0.93060771      13.75865250       8.97681217
C        1.41667707      14.47099777      10.08857005
C        2.78448357      14.71596549      10.25507570
C        3.69057735      14.24439449       9.31082133
C        3.24162740      13.53386590       8.20273931
C        1.87244879      13.29723642       8.03814676
Br       5.53827471      14.57117066       9.53341651
H       -0.17895893       2.36196846       3.10838509
H       -1.59025530       3.75786027       4.54096881
H       -5.00426716       2.83111562       2.05671163
H       -3.58758326       1.40400214       0.65872085
H       -5.98939837       2.92904149       4.31345889
H       -7.33873537       4.41813322       5.75596159
H       -2.83201196       5.87257881       4.52911015
H       -3.57086742      14.98274295       9.04401578
H       -1.17376493      15.49623547       9.38345754
H       -0.31105081      11.44718119       8.14372971
H        0.73136086      14.83656810      10.85106829
H        3.12736141      15.27106960      11.12431933
H        3.94235183      13.16348130       7.45904348
H        1.54708509      12.75562372       7.15175156
C        1.79121992      -1.79121992       1.79121992
C        1.32655114      -2.21531502       3.03142722
C        2.13865843      -3.01905833       3.83933607
C        3.42233691      -3.41916920       3.42258887
C        3.86117987      -2.97675877       2.16078435
C        3.05623400      -2.16666368       1.35158110
C        4.27707412      -4.26737041       4.28073028
C        5.65403549      -4.03366176       4.40190453
C        6.41480573      -4.84979574       5.22706566
N        5.90917824      -5.87155449       5.94468475
C        4.58484176      -6.08828818       5.82498833
C        3.74391072      -5.33449739       5.01737839
C        4.07677514      -7.15907538       6.62017284
C        3.63268895      -8.04705075       7.29534231
C        3.04258004      -9.17155554       8.15188921
C        2.55676217     -10.05390726       8.80523860
C        1.95643448     -11.11055961       9.55364068
N        2.76983834     -12.15193871       9.81722228
C        2.22273092     -13.18283774      10.49012722
C        0.89897155     -13.21982189      10.90432669
C        0.06042597     -12.13120949      10.62774489
C        0.62328661     -11.04978481       9.93583871
C       -1.35987223     -12.12922577      11.03550343
C       -1.75911947     -12.60338323      12.29862700
C       -3.10514338     -12.60992284      12.68177816
C       -4.07505183     -12.13430786      11.80538245
C       -3.71181889     -11.65571049      10.55108620
C       -2.36526803     -11.65729061      10.17091180
Br      -5.89313199     -12.13940148      12.32004297
H        0.34002210      -1.92557663       3.38371376
H        1.75665715      -3.31895436       4.81347287
H        4.83909207      -3.26971710       1.78328524
H        3.42668329      -1.84033084       0.38329212
H        6.13873469      -3.21676946       3.87639459
H        7.48381877      -4.69050457       5.33850683
H        2.68857909      -5.58244608       4.96267576
H        2.89419747     -14.01331426      10.69011441
H        0.53139866     -14.10083818      11.42122110
H        0.03526934     -10.16900130       9.69769106
H       -1.01926744     -12.96538372      13.01015925
H       -3.38067202     -12.98457039      13.66412914
H       -4.46321193     -11.28411254       9.85927234
H       -2.11133089     -11.29543458       9.17618649
C       -0.00445707       0.01189536      -1.78238275
H       -0.66409135       0.67374010      -2.43557963
H        0.65740317      -0.63156657      -2.45157240
C       -0.90989263      -0.90692880      -0.91072765
C        0.90977584       0.90977584      -0.90977584
C       -0.00465871       1.77757030       0.00794375
H       -0.66225468       2.44313916      -0.64384735
H        0.64322798       2.43503045       0.67728295
C       -1.78241447       0.00034974      -0.00472694
H       -2.45427497      -0.65498947       0.64260836
H       -2.43311707       0.67328779      -0.65473579
C       -0.91132561       0.90220522       0.91563759
C       -0.01476271      -0.02253852       1.78660255
H       -0.67934791      -0.69751639       2.42135241
H        0.63392994       0.61504881       2.47327442
C        0.01484550      -1.77751727      -0.01636693
H        0.67870853      -2.42144646      -0.68295456
H       -0.62264859      -2.45592969       0.64226336
C        1.78714474       0.01002794       0.00389507
H        2.44202412       0.67113390       0.66197326
H        2.45385902      -0.65136977      -0.64189061
C        0.91606151      -0.90478549       0.90901405
