117
Properties=species:S:1:pos:R:3 pbc="F F F"
C        0.00000000       0.00000000       0.00000000
C        0.91227906       0.91227906      -0.91227906
C        2.28124424       1.01338350      -0.31006711
C        2.58398644       2.02228319       0.61064879
C        3.85924407       2.10671226       1.18189458
C        4.87246454       1.19081078       0.85208849
C        4.55279472       0.18025650      -0.07028373
C        3.27702445       0.08740674      -0.63907630
C        6.21940317       1.28401119       1.45570200
C        6.86084790       2.52276621       1.62410194
C        8.13322841       2.61445849       2.20100539
C        8.81097426       1.46358161       2.61727894
C       10.17032695       1.55922383       3.24113781
C        8.18287446       0.22348797       2.45876174
C        6.90726354       0.13774952       1.88851356
H        0.42555568       1.88920292      -0.98711246
H        0.93610058       0.45798325      -1.90719758
H        1.82724577       2.74832666       0.90113183
H        4.04818102       2.89428808       1.90882139
H        5.30401227      -0.54940650      -0.36599594
H        3.07009286      -0.71768786      -1.34109677
H        6.37527795       3.44019701       1.29711203
H        8.58747845       3.59571891       2.32198219
H       10.70422864       2.46021444       2.92572342
H       10.78827390       0.68779895       3.00633377
H        8.67597474      -0.68953523       2.78676053
H        6.44482482      -0.84373499       1.80247386
C       10.03921240       1.62247740       4.67376057
C        9.92940397       1.67545227       5.87358213
Br       9.75185301       1.76110815       7.81359211
C       -0.91227906      -0.91227906      -0.91227906
C       -0.04825524      -1.75947021      -1.79696940
C        0.35647608      -1.29796585      -3.05413107
C        1.17440959      -2.08538225      -3.87308910
C        1.61225239      -3.35705397      -3.46638525
C        1.20188783      -3.80557071      -2.19965207
C        0.38969165      -3.01909236      -1.37410678
C        2.47454914      -4.18742541      -4.33483609
C        2.24238190      -4.28468198      -5.71721210
C        3.06092173      -5.06496677      -6.54263648
C        4.13369996      -5.78493484      -6.00604206
C        5.01556572      -6.61582069      -6.88815801
C        4.37871848      -5.69479913      -4.63152004
C        3.56211430      -4.90701866      -3.81159515
H       -1.56267301      -0.24902491      -1.49017314
H       -1.53508029      -1.51840792      -0.24779320
H        0.04750592      -0.31574425      -3.40620227
H        1.48325956      -1.68156223      -4.83534505
H        1.50647838      -4.78659374      -1.84048635
H        0.10442963      -3.40163658      -0.39629482
H        1.40741555      -3.75452955      -6.17124893
H        2.85068933      -5.10237854      -7.60952597
H        4.49849939      -6.94216268      -7.79505637
H        5.39646203      -7.49896045      -6.36724067
H        5.21475106      -6.22952259      -4.18490745
H        3.79939922      -4.84691405      -2.75110114
C        6.15232404      -5.83594776      -7.30430551
C        7.10435913      -5.18280419      -7.65282905
Br       8.64371935      -4.12672627      -8.21636213
C       -0.91227906       0.91227906       0.91227906
C       -1.98152455       1.54758195       0.07558836
C       -1.76260119       2.78077480      -0.54775515
C       -2.75780580       3.36584202      -1.33958606
C       -4.00195496       2.74216493      -1.53293307
C       -4.20603012       1.50204264      -0.90473781
C       -3.21151491       0.90955911      -0.11756653
C       -5.05211741       3.36391278      -2.36831783
C       -5.31905866       4.74180302      -2.30134950
C       -6.30828183       5.33402997      -3.09563029
C       -7.07256329       4.56045892      -3.97574528
C       -8.12769345       5.19270669      -4.83198717
C       -6.81537751       3.18750646      -4.05528328
C       -5.81984342       2.60134338      -3.26468730
H       -0.26311543       1.65781319       1.38094244
H       -1.33164386       0.27403605       1.69560150
H       -0.81084897       3.29547639      -0.43188476
H       -2.54049123       4.31629011      -1.82313362
H       -5.15502086       0.98116771      -1.01558685
H       -3.40867759      -0.05688823       0.34171241
H       -4.75913873       5.37577709      -1.61655289
H       -6.47342820       6.40673546      -3.01894849
H       -8.51426374       6.11643875      -4.39198283
H       -8.96678789       4.51441324      -5.01146205
H       -7.38099669       2.56008390      -4.74140160
H       -5.63678336       1.53385449      -3.37202187
C       -7.56680808       5.53456786      -6.11344670
C       -7.09706657       5.82087659      -7.18666906
Br      -6.33753429       6.28381360      -8.92197884
C        0.91227906      -0.91227906       0.91227906
C        0.09656722      -1.46739497       2.04073266
C       -0.02159679      -0.76965321       3.24756442
C       -0.79481665      -1.28358387       4.29529453
C       -1.47188326      -2.50881584       4.17425425
C       -1.34797098      -3.19620142       2.95510452
C       -0.58158536      -2.68316639       1.90192647
C       -2.28622634      -3.05013657       5.28380213
C       -1.84205146      -2.98623990       6.61532374
C       -2.61375957      -3.49218791       7.66825318
C       -3.85304278      -4.09145630       7.41886341
C       -4.68425821      -4.62804608       8.54462510
C       -4.30945557      -4.15902268       6.09803358
C       -3.53764234      -3.64465241       5.04948943
H        1.73836242      -0.29165597       1.27185267
H        1.32177989      -1.70288482       0.27661671
H        0.47922067       0.18701849       3.38223843
H       -0.87711377      -0.70034272       5.21041877
H       -1.84553370      -4.15345223       2.81268318
H       -0.52186106      -3.24392648       0.97143636
H       -0.87571321      -2.54408463       6.84999152
H       -2.23528329      -3.41135210       8.68514636
H       -4.07460429      -4.90333090       9.40999306
H       -5.26935776      -5.50016137       8.23893547
H       -5.27624353      -4.60439649       5.87152603
H       -3.93819032      -3.69790563       4.03890067
C       -5.61185842      -3.61735985       8.98242780
C       -6.38872359      -2.77091014       9.34908756
Br      -7.64484888      -1.40227254       9.94194539
