138
Properties=species:S:1:pos:R:3 pbc="F F F"
C        1.82218309       1.82218309      -1.82218309
C        3.19114826       1.92328753      -1.21997113
C        3.49389046       2.93218721      -0.29925524
C        4.76914809       3.01661629       0.27199056
C        5.78236857       2.10071480      -0.05781553
C        5.46269875       1.09016052      -0.98018776
C        4.18692847       0.99731077      -1.54898033
C        7.12930720       2.19391521       0.54579798
C        7.77075193       3.43267024       0.71419792
C        9.04313243       3.52436252       1.29110137
C        9.72087829       2.37348564       1.70737491
C       11.08023098       2.46912786       2.33123379
C        9.09277848       1.13339200       1.54885772
C        7.81716756       1.04765355       0.97860954
H        1.33545970       2.79910694      -1.89701649
H        1.84600461       1.36788727      -2.81710161
H        2.73714980       3.65823069      -0.00877219
H        4.95808505       3.80419211       0.99891737
H        6.21391630       0.36049752      -1.27589996
H        3.97999688       0.19221617      -2.25100079
H        7.28518197       4.35010104       0.38720801
H        9.49738247       4.50562293       1.41207816
H       11.61413266       3.37011847       2.01581939
H       11.69817793       1.59770297       2.09642974
H        9.58587876       0.22036880       1.87685650
H        7.35472884       0.06616904       0.89256983
C       10.94911643       2.53238143       3.76385654
C       10.83930799       2.58535629       4.96367810
Br      10.66175704       2.67101217       6.90368808
C       -1.82218309      -1.82218309      -1.82218309
C       -3.04860901      -2.22536822      -1.06042970
C       -3.05604414      -3.38759323      -0.28169553
C       -4.19821536      -3.75506916       0.43951069
C       -5.36836383      -2.97798751       0.40545244
C       -5.34488501      -1.81118396      -0.37697805
C       -4.20298342      -1.43573715      -1.09449900
C       -6.57413598      -3.37008825       1.16679980
C       -7.00211522      -4.70736176       1.22025274
C       -8.13955575      -5.08225403       1.94541620
C       -8.89403009      -4.12477811       2.63181918
C      -10.10832605      -4.52407317       3.41427418
C       -8.47768060      -2.78971973       2.59008757
C       -7.33518454      -2.42104556       1.87001854
H       -1.22334424      -2.68782008      -2.12041881
H       -2.06898672      -1.24430290      -2.71770387
H       -2.16915437      -4.01511367      -0.21988463
H       -4.15638981      -4.65581985       1.04884988
H       -6.22772354      -1.17851092      -0.44407932
H       -4.22563276      -0.51841426      -1.67916682
H       -6.45334656      -5.48012218       0.68539373
H       -8.42794954      -6.13114016       1.96816246
H      -10.55610811      -5.44693018       3.03460655
H      -10.87075059      -3.73980822       3.41110765
H       -9.03303384      -2.02262131       3.12626409
H       -7.03318118      -1.37545852       1.88031166
C       -9.74020408      -4.76317628       4.78573906
C       -9.43190194      -4.96342514       5.93434090
Br      -8.93340344      -5.28721061       7.79153292
C       -1.82218309       1.82218309       1.82218309
C       -2.29234762       3.00764316       1.03441615
C       -1.53955307       4.18633998       0.99943987
C       -1.97391031       5.28760533       0.25225819
C       -3.17200951       5.24969636      -0.48080697
C       -3.91524363       4.05800288      -0.44019948
C       -3.48170876       2.95162903       0.29988178
C       -3.62926641       6.41561779      -1.26745976
C       -3.52872628       7.72299067      -0.76249270
C       -3.95496246       8.82902830      -1.50759718
C       -4.50883442       8.65913408      -2.78097949
C       -4.95993566       9.84174443      -3.58355504
C       -4.61204281       7.36311381      -3.29784387
C       -4.17721904       6.26107609      -2.55208356
H       -1.22404405       2.11861696       2.68892212
H       -2.65635765       1.20534770       2.16928814
H       -0.60113304       4.25720859       1.54581104
H       -1.34934833       6.17868946       0.23532200
H       -4.85471396       3.97928920      -0.98368938
H       -4.08348413       2.04516954       0.29456017
H       -3.12021842       7.89670771       0.23114887
H       -3.84793902       9.82439794      -1.08140972
H       -5.22501368      10.69183638      -2.94841833
H       -5.81747478       9.60001097      -4.21803459
H       -5.02339751       7.19770315      -4.29170960
H       -4.25546791       5.27171372      -2.99885359
C       -3.89155192      10.27330580      -4.44721641
C       -2.99678054      10.63473845      -5.17053281
Br      -1.55001089      11.21914448      -6.34007425
C        1.82218309      -1.82218309       1.82218309
C        2.24218647      -3.03864673       1.05357372
C        1.45949693      -4.19814968       1.06768629
C        1.84686302      -5.32853899       0.33837182
C        3.02633538      -5.33972503      -0.42516151
C        3.79994015      -4.16684766      -0.43374078
C        3.41334152      -3.03155183       0.28832621
C        3.43395669      -6.53630359      -1.19283585
C        3.31373591      -7.82762784      -0.65213950
C        3.69292007      -8.96252607      -1.37905255
C        4.21801888      -8.83879903      -2.66982890
C        4.61866260     -10.05229612      -3.45283367
C        4.34031707      -7.55918612      -3.22219043
C        3.95246760      -6.42804853      -2.49430456
H        1.23924879      -2.08140371       2.71093063
H        2.68015458      -1.21846169       2.13237722
H        0.53392328      -4.23123334       1.63899605
H        1.19998016      -6.20345233       0.35992730
H        4.72683356      -4.12587886      -1.00239864
H        4.03726598      -2.14124515       0.24470271
H        2.92663589      -7.96590111       0.35553800
H        3.57200284      -9.94385148      -0.92492708
H        4.87860185     -10.89275672      -2.80292683
H        5.46542058      -9.84858617      -4.11455559
H        4.73004858      -7.42929252      -4.22995005
H        4.04395047      -5.45250316      -2.96812558
C        3.51801476     -10.47777403      -4.27814748
C        2.59622219     -10.83411178      -4.96934779
Br       1.10576157     -11.41027979      -6.08696023
C       -0.00445707       0.01189536      -1.78238275
H       -0.66409135       0.67374010      -2.43557963
H        0.65740317      -0.63156657      -2.45157240
C       -0.90989263      -0.90692880      -0.91072765
C        0.90977584       0.90977584      -0.90977584
C       -0.00465871       1.77757030       0.00794375
H       -0.66225468       2.44313916      -0.64384735
H        0.64322798       2.43503045       0.67728295
C       -1.78241447       0.00034974      -0.00472694
H       -2.45427497      -0.65498947       0.64260836
H       -2.43311707       0.67328779      -0.65473579
C       -0.91132561       0.90220522       0.91563759
C       -0.01476271      -0.02253852       1.78660255
H       -0.67934791      -0.69751639       2.42135241
H        0.63392994       0.61504881       2.47327442
C        0.01484550      -1.77751727      -0.01636693
H        0.67870853      -2.42144646      -0.68295456
H       -0.62264859      -2.45592969       0.64226336
C        1.78714474       0.01002794       0.00389507
H        2.44202412       0.67113390       0.66197326
H        2.45385902      -0.65136977      -0.64189061
C        0.91606151      -0.90478549       0.90901405
