110
Properties=species:S:1:pos:R:3 pbc="F F F"
O        2.26859252      -0.00450436      -3.31441170
C        2.41569621       1.30460655      -2.92686894
C        1.78907564       1.78907564      -1.78907564
C        1.99312604       3.11503549      -1.47698511
N        2.76131725       3.95150839      -2.21403739
C        3.36828573       3.49256859      -3.31151039
N        4.11341590       4.34823680      -4.00640973
C        4.74957712       3.96705465      -5.11092838
N        5.47754216       4.88446835      -5.75253461
C        6.14166217       4.53982232      -6.88094264
C        6.11775924       3.27530970      -7.42684309
Br       7.07644608       2.88952578      -9.00410676
C        5.36438988       2.31698737      -6.76691965
O        5.28302342       1.03010544      -7.23903728
C        4.66487651       2.65260012      -5.59112546
C        3.88398966       1.74124536      -4.86985018
C        3.21964137       2.15642873      -3.70895327
H        1.68716103      -0.45041329      -2.67079113
H        1.53897046       3.57372132      -0.60275352
H        6.70726573       5.34885592      -7.33544520
H        5.81965957       0.96784954      -8.05087080
H        3.79334104       0.71127962      -5.21091688
O       -2.01404573      -3.47379593      -0.09065821
C       -2.29125442      -3.00478804      -1.35112924
C       -1.78907564      -1.78907564      -1.78907564
C       -2.11878749      -1.39830232      -3.06805683
N       -2.89485108      -2.13042531      -3.90158664
C       -3.38253466      -3.30258844      -3.48724161
N       -4.14055501      -3.98941660      -4.33809081
C       -4.66303073      -5.16511932      -3.99941010
N       -5.41286780      -5.79303040      -4.90864693
C       -5.96416217      -6.99208409      -4.60618087
C       -5.80052896      -7.62547653      -3.39390655
Br      -6.60866300      -9.29700868      -3.06440694
C       -5.02351359      -6.98035900      -2.44442431
O       -4.80620539      -7.53759642      -1.20836433
C       -4.43988816      -5.73200169      -2.73671223
C       -3.64405207      -5.02008687      -1.83094626
C       -3.10069724      -3.78343002      -2.20089610
H       -1.44792355      -2.82058945       0.36097413
H       -1.76677982      -0.46011091      -3.48855456
H       -6.55775947      -7.42905840      -5.40474899
H       -5.27549476      -8.39159906      -1.17128609
H       -3.44784780      -5.42724713      -0.84044260
O       -1.81418628       3.57855842       0.18575516
C       -2.19356430       3.05599440       1.39761300
C       -1.78907564       1.78907564       1.78907564
C       -2.21742845       1.34659794       3.02112025
N       -2.99948202       2.07559201       3.85178900
C       -3.39344213       3.29688695       3.48203562
N       -4.16115060       3.97866151       4.32825032
C       -4.59416317       5.20127064       4.03212634
N       -5.36061773       5.82050288       4.93342452
C       -5.82320917       7.06605963       4.67315833
C       -5.55054517       7.75656511       3.51280176
Br      -6.24046790       9.49006157       3.23954915
C       -4.75555139       7.12083797       2.57190754
O       -4.43230653       7.73355971       1.38629990
C       -4.26293991       5.82477153       2.82089064
C       -3.45565300       5.11884263       1.92058956
C       -3.00720845       3.83244071       2.24537422
H       -1.25997175       2.91911661      -0.27154950
H       -1.94568579       0.36632956       3.40342995
H       -6.43816559       7.49187333       5.46152793
H       -4.84895595       8.61514162       1.37428234
H       -3.17688255       5.56926471       0.96939028
O        2.27143772       0.00539899       3.31246114
C        2.41708692      -1.30416928       2.92591551
C        1.78907564      -1.78907564       1.78907564
C        1.99172180      -3.11547701       1.47794783
N        2.75982778      -3.95197655       2.21505870
C        3.36813051      -3.49261716       3.31161704
N        4.11312286      -4.34832833       4.00661123
C        4.75055772      -3.96674553       5.11025689
N        5.47828633      -4.88423311       5.75202569
C        6.14366913      -4.53918991       6.87956808
C        6.12131821      -3.27418985       7.42440396
Br       7.08168790      -2.88787679       9.00051393
C        5.36820466      -2.31578760       6.76430465
O        5.28834613      -1.02843219       7.23538782
C        4.66739561      -2.65180777       5.58939871
C        3.88667171      -1.74040202       4.86801147
C        3.22097230      -2.15601015       3.70804092
H        1.68983673       0.45125473       2.66895686
H        1.53642355      -3.57452219       0.60449955
H        6.70896876      -5.34831855       7.33427954
H        5.82573161      -0.96594088       8.04670743
H        3.79719843      -0.71006697       5.20827214
C       -0.00445707       0.01189536      -1.78238275
H       -0.66409135       0.67374010      -2.43557963
H        0.65740317      -0.63156657      -2.45157240
C       -0.90989263      -0.90692880      -0.91072765
C        0.90977584       0.90977584      -0.90977584
C       -0.00465871       1.77757030       0.00794375
H       -0.66225468       2.44313916      -0.64384735
H        0.64322798       2.43503045       0.67728295
C       -1.78241447       0.00034974      -0.00472694
H       -2.45427497      -0.65498947       0.64260836
H       -2.43311707       0.67328779      -0.65473579
C       -0.91132561       0.90220522       0.91563759
C       -0.01476271      -0.02253852       1.78660255
H       -0.67934791      -0.69751639       2.42135241
H        0.63392994       0.61504881       2.47327442
C        0.01484550      -1.77751727      -0.01636693
H        0.67870853      -2.42144646      -0.68295456
H       -0.62264859      -2.45592969       0.64226336
C        1.78714474       0.01002794       0.00389507
H        2.44202412       0.67113390       0.66197326
H        2.45385902      -0.65136977      -0.64189061
C        0.91606151      -0.90478549       0.90901405
