118
Properties=species:S:1:pos:R:3 pbc="F F F"
O        2.26859252      -0.00450436      -3.31441170
C        2.41569621       1.30460655      -2.92686894
C        1.78907564       1.78907564      -1.78907564
C        1.99312604       3.11503549      -1.47698511
N        2.76131725       3.95150839      -2.21403739
C        3.36828573       3.49256859      -3.31151039
N        4.11341590       4.34823680      -4.00640973
C        4.74957712       3.96705465      -5.11092838
N        5.47754216       4.88446835      -5.75253461
C        6.14166217       4.53982232      -6.88094264
C        6.11775924       3.27530970      -7.42684309
C        5.36438988       2.31698737      -6.76691965
O        5.28302342       1.03010544      -7.23903728
C        4.66487651       2.65260012      -5.59112546
C        3.88398966       1.74124536      -4.86985018
C        3.21964137       2.15642873      -3.70895327
H        1.68716103      -0.45041329      -2.67079113
H        1.53897046       3.57372132      -0.60275352
H        6.70726573       5.34885592      -7.33544520
H        5.81965957       0.96784954      -8.05087080
H        3.79334104       0.71127962      -5.21091688
C        6.84987290       2.98070079      -8.63134099
C        7.46301809       2.73396584      -9.64010798
Br       8.45442200       2.33501629     -11.27119889
O       -2.11977684      -3.41117911      -0.04754391
C       -2.34293522      -2.97418179      -1.33005470
C       -1.78907564      -1.78907564      -1.78907564
C       -2.06660366      -1.42920628      -3.08933670
N       -2.83949787      -2.16320043      -3.92416473
C       -3.37676354      -3.30599769      -3.48960347
N       -4.12965743      -3.99584867      -4.34255632
C       -4.69946105      -5.14351636      -3.98458273
N       -5.44050548      -5.77661772      -4.89742193
C       -6.03872582      -6.94787701      -4.57582430
C       -5.93277474      -7.54712930      -3.34000800
C       -5.16527205      -6.89639604      -2.38662881
O       -5.00400943      -7.42046616      -1.12769055
C       -4.53349781      -5.67655448      -2.69854980
C       -3.74372030      -4.96106035      -1.79030455
C       -3.15015510      -3.75413673      -2.18073154
H       -1.54735488      -2.76170010       0.40151611
H       -1.67213378      -0.51616405      -3.52714746
H       -6.62102185      -7.39152529      -5.37901971
H       -5.50114743      -8.25798336      -1.07924912
H       -3.59119666      -5.34236129      -0.78197959
C       -6.59767399      -8.79533336      -3.06890733
C       -7.15452712      -9.84070427      -2.84186052
Br      -8.05491154     -11.53098062      -2.47474502
O       -1.90404679       3.53364340       0.14080967
C       -2.23748758       3.03404063       1.37564350
C       -1.78907564       1.78907564       1.78907564
C       -2.17307767       1.36876522       3.04330376
N       -2.95243819       2.09910045       3.87532439
C       -3.38853816       3.29933092       3.48449563
N       -4.15189103       3.98327142       4.33289996
C       -4.62512806       5.18576996       4.01666212
N       -5.38411155       5.80872222       4.92171136
C       -5.88658557       7.03434143       4.64150012
C       -5.66294327       7.70036181       3.45660696
C       -4.87603242       7.06060965       2.51165483
O       -4.60041799       7.64954476       1.30220339
C       -4.34249937       5.78499768       2.78110504
C       -3.54036072       5.07650287       1.87822160
C       -3.04924282       3.81142811       2.22435244
H       -1.34447845       2.87687470      -0.31381428
H       -1.86524632       0.40653667       3.44366230
H       -6.49193905       7.46493906       5.43468874
H       -5.04073510       8.51930294       1.27834187
H       -3.29871329       5.50837773       0.90844651
C       -6.23040041       9.00388138       3.22763290
C       -6.70564577      10.09557902       3.03586712
Br      -7.47407732      11.86076177       2.72579808
O        2.42914181       0.04888176       3.19823981
C        2.49417151      -1.28291601       2.87008418
C        1.78907564      -1.78907564       1.78907564
C        1.91388703      -3.13693679       1.53432282
N        2.67726932      -3.97472959       2.27486413
C        3.35952788      -3.49497564       3.31786119
N        4.09688204      -4.35277205       4.01840833
C        4.80491304      -3.95171451       5.07093260
N        5.51953749      -4.87278852       5.72221912
C        6.25491531      -4.50844041       6.79907141
C        6.31858772      -3.21975433       7.28156998
C        5.57965172      -2.25747122       6.61117396
O        5.58337324      -0.94710921       7.02168369
C        4.80702548      -2.61329423       5.48828238
C        4.03533285      -1.69941212       4.76034023
C        3.29474345      -2.13566494       3.65461498
H        1.83814648       0.49215266       2.56154505
H        1.39525273      -3.61344824       0.70674432
H        6.80337024      -5.32218372       7.26601289
H        6.16229204      -0.87317761       7.80291027
H        4.01100584      -0.65112968       5.05340202
C        7.12321920      -2.90510066       8.43359483
C        7.79709806      -2.64157821       9.39841564
Br       8.88670318      -2.21548470      10.95844929
C       -0.00445707       0.01189536      -1.78238275
H       -0.66409135       0.67374010      -2.43557963
H        0.65740317      -0.63156657      -2.45157240
C       -0.90989263      -0.90692880      -0.91072765
C        0.90977584       0.90977584      -0.90977584
C       -0.00465871       1.77757030       0.00794375
H       -0.66225468       2.44313916      -0.64384735
H        0.64322798       2.43503045       0.67728295
C       -1.78241447       0.00034974      -0.00472694
H       -2.45427497      -0.65498947       0.64260836
H       -2.43311707       0.67328779      -0.65473579
C       -0.91132561       0.90220522       0.91563759
C       -0.01476271      -0.02253852       1.78660255
H       -0.67934791      -0.69751639       2.42135241
H        0.63392994       0.61504881       2.47327442
C        0.01484550      -1.77751727      -0.01636693
H        0.67870853      -2.42144646      -0.68295456
H       -0.62264859      -2.45592969       0.64226336
C        1.78714474       0.01002794       0.00389507
H        2.44202412       0.67113390       0.66197326
H        2.45385902      -0.65136977      -0.64189061
C        0.91606151      -0.90478549       0.90901405
