181
Properties=species:S:1:pos:R:3 pbc="F F F"
C        0.00000000       0.00000000       0.00000000
O        0.22192570       6.55160653      -4.21129485
C        1.47869739       5.99698527      -4.28465480
C        2.44021492       6.67985304      -5.03500468
C        3.67412951       6.05096941      -5.10491619
N        3.98412101       4.87369269      -4.50922032
C        3.06360997       4.24193465      -3.78686704
C        1.77611931       4.77434293      -3.63370164
C        0.87720283       4.05607894      -2.82773928
C        1.26987268       2.84637227      -2.23802671
C        2.57523417       2.39663153      -2.47006859
N        3.42295914       3.09204020      -3.22049736
N        3.00897093       1.25051884      -1.93873010
C        2.17677573       0.51601154      -1.16349719
C        0.87894733       0.87894733      -0.87894733
C        0.42126791       2.06655163      -1.42873792
O       -0.86101558       2.50567592      -1.20426130
C        2.18982423       7.96142874      -5.71499252
C        1.66971083       9.05296717      -5.03608630
N        1.41125236      10.26359151      -5.58784670
C        1.66746758      10.46467031      -6.87718790
C        2.19912068       9.44244490      -7.67512657
C        2.44023574       8.18330808      -7.07221302
O        2.91984934       7.12496915      -7.80863152
C        2.46800514       9.75226565      -9.01877662
C        2.17951963      11.02953304      -9.51958460
C        1.63386656      11.97158830      -8.63945385
N        1.39880994      11.67330846      -7.36615934
N        1.33454447      13.20485940      -9.05605343
C        1.56465168      13.54912783     -10.34506073
C        2.09921116      12.69151629     -11.28089034
C        2.41050378      11.40904909     -10.85596909
O        2.94222796      10.48348512     -11.72087217
H       -0.43972381       5.84847530      -4.10636703
H        4.49676411       6.48915474      -5.66709511
H       -0.12409750       4.42989159      -2.63321687
H        2.61440818      -0.39933153      -0.77407477
H       -1.30323323       1.86261404      -0.61815082
H        1.43074708       8.99310690      -3.97581657
H        2.62466685       7.20793730      -8.73013695
H        2.91710395       9.02055415      -9.68437299
H        1.29156737      14.57109439     -10.59408863
H        3.05038456      10.91003270     -12.59206458
C        2.31547340      13.12419868     -12.63721501
C        2.49659302      13.48657018     -13.77313691
Br       2.78944812      14.07249425     -15.60982656
O       -3.38005707      -6.99352541      -0.61124460
C       -3.74689677      -6.28287871      -1.73056198
C       -4.58116985      -6.92112959      -2.65277320
C       -4.88232720      -6.16930653      -3.77838140
N       -4.43975594      -4.91062270      -4.01665537
C       -3.65795502      -4.31046938      -3.12398726
C       -3.28269274      -4.96095315      -1.94051800
C       -2.48084207      -4.24050321      -1.03967576
C       -2.06489182      -2.93841763      -1.35096222
C       -2.48366824      -2.38940142      -2.56886463
N       -3.25582645      -3.07325785      -3.40641239
N       -2.11899368      -1.15468358      -2.92454259
C       -1.33706633      -0.42373532      -2.09548282
C       -0.87894733      -0.87894733      -0.87894733
C       -1.25194442      -2.16054205      -0.50407099
O       -0.83753677      -2.70064118       0.68925632
C       -5.10679759      -8.28476922      -2.47467868
C       -5.78023390      -8.65734887      -1.32118153
N       -6.29311775      -9.88864153      -1.08093130
C       -6.16776230     -10.84182902      -1.99973447
C       -5.51112400     -10.59291426      -3.21265389
C       -4.97004174      -9.30090548      -3.42480962
O       -4.27578144      -9.00317199      -4.57449658
C       -5.45264255     -11.64816357      -4.13824128
C       -6.01087081     -12.89490408      -3.82286238
C       -6.62927625     -13.04027822      -2.57535423
N       -6.69369746     -12.03081579      -1.71376449
N       -7.17752077     -14.20356166      -2.21437487
C       -7.13735889     -15.25446901      -3.06701235
C       -6.55334602     -15.20486584      -4.31340593
C       -5.98049970     -14.00104147      -4.69398079
O       -5.37013066     -13.85979050      -5.91666408
H       -2.50445789      -6.70011357      -0.31054707
H       -5.51916279      -6.56780141      -4.56604976
H       -2.18550294      -4.66791403      -0.08559400
H       -1.09113181       0.56789159      -2.46591121
H       -0.30084845      -2.03130453       1.15462135
H       -5.94036787      -7.94867372      -0.51062896
H       -3.84489453      -9.80512540      -4.91272116
H       -4.99405539     -11.51411251      -5.11386319
H       -7.60794180     -16.15864816      -2.69016042
H       -5.45068961     -14.70667011      -6.39512212
C       -6.54481920     -16.36315727      -5.16891061
C       -6.53767799     -17.33322634      -5.88539578
Br      -6.52613125     -18.90174598      -7.04389171
O       -6.75197133       0.36141325       3.87144249
C       -6.10753419       1.55565800       4.09714527
C       -6.75393581       2.49178896       4.90934787
C       -6.07390326       3.69009533       5.06601653
N       -4.87419017       3.98446734       4.50837650
C       -4.26414685       3.07907339       3.74919142
C       -4.84429281       1.82481617       3.51505491
C       -4.11548841       0.91856180       2.72697083
C       -2.87647667       1.29083040       2.18696459
C       -2.39673432       2.57530573       2.46989425
N       -3.08631288       3.41897197       3.23021185
N       -1.22444785       2.99082115       1.98295086
C       -0.48944978       2.15828429       1.20855039
C       -0.87894733       0.87894733       0.87894733
C       -2.09569418       0.44155602       1.37930727
O       -2.56820516      -0.81748473       1.09820121
C       -8.05665579       2.25611824       5.55347146
C       -8.28567777       1.13554857       6.33753796
N       -9.45282504       0.84682276       6.96304278
C      -10.48271753       1.68003148       6.84657678
C      -10.38012129       2.85190090       6.08466995
C       -9.15245783       3.11492670       5.42837232
O       -8.99907156       4.22453930       4.62983915
C      -11.50708813       3.68965624       6.04230304
C      -12.68027593       3.32871386       6.71964749
C      -12.68000636       2.12704448       7.43785787
N      -11.60321000       1.35000965       7.48505809
N      -13.76733687       1.72612324       8.10199720
C      -14.88283489       2.49313574       8.08286961
C      -14.97568912       3.68937899       7.40654968
C      -13.85142747       4.11080924       6.71328524
O      -13.85322920       5.28813567       6.00522038
H       -6.50086102       0.01444619       2.99981132
H       -6.48580152       4.49442971       5.67278272
H       -4.48623700      -0.08487163       2.53764560
H        0.44875096       2.58000396       0.85789842
H       -1.90532403      -1.27349991       0.54570750
H       -7.50490609       0.39470944       6.50005502
H       -9.85494080       4.46742575       4.24037455
H      -11.48521429       4.63292126       5.50389554
H      -15.71704578       2.08934195       8.65036265
H      -14.72724467       5.70780505       6.11743212
C      -16.19583631       4.45384895       7.42720182
C      -17.21770958       5.09409254       7.44449799
Br     -18.86999224       6.12931228       7.47246442
O        4.08435045      -0.27080472       6.62967191
C        4.19405536      -1.51441539       6.05186672
C        4.95000790      -2.47448503       6.73057971
C        5.05727459      -3.69381569       6.07892484
N        4.49139382      -3.99169476       4.88394543
C        3.76324301      -3.07309337       4.25607528
C        3.57358386      -1.79990765       4.81067238
C        2.76400680      -0.90280018       4.09421407
C        2.20641954      -1.28255084       2.86530129
C        2.47364758      -2.57370840       2.39457832
N        3.22713163      -3.42028284       3.08808223
N        1.97398136      -2.99463835       1.22960015
C        1.19679113      -2.16328875       0.49620458
C        0.87894733      -0.87894733       0.87894733
C        1.39575287      -0.43455716       2.08624743
O        1.13676356       0.83389594       2.54605402
C        5.59928559      -2.23662084       8.03033905
C        4.88852714      -1.75221290       9.11802426
N        5.41087077      -1.50739002      10.34442978
C        6.70089034      -1.74203214      10.56640331
C        7.52949412      -2.23701831       9.55017972
C        6.95662812      -2.46453760       8.27459112
O        7.72340014      -2.90799377       7.22205610
C        8.87190333      -2.48544607       9.88169801
C        9.34138854      -2.21296361      11.17428513
C        8.43193035      -1.70399102      12.10898734
N        7.16030341      -1.48821747      11.78975686
N        8.81789321      -1.42145503      13.35610907
C       10.10421592      -1.63289912      13.72172520
C       11.06745431      -2.13138559      12.87277790
C       10.67438919      -2.42505819      11.57607458
O       11.56801782      -2.92074219      10.65782523
H        3.98002127       0.40270771       5.93780496
H        5.62717106      -4.51384094       6.51200195
H        2.54192990       0.08669493       4.48377599
H        0.83449292      -2.58996478      -0.43530628
H        0.55468802       1.27732180       1.90016540
H        3.82503932      -1.53313210       9.04149912
H        8.63693001      -2.59635696       7.32945413
H        9.56079681      -2.90640116       9.15483312
H       10.32738876      -1.37563977      14.75372185
H       12.43259968      -3.02022086      11.09966130
C       12.41903686      -2.32944342      13.32840681
C       13.55098724      -2.49531684      13.70999602
Br      15.38125528      -2.76352015      14.32699351
