114
Properties=species:S:1:pos:R:3 pbc="F F F"
C        2.87894717       1.63332877      -6.15263866
C        3.77108850       1.42407445      -4.93720692
N        3.18993888       2.05401405      -3.73867236
C        2.37353558       1.32721619      -2.88412244
C        1.77399372       1.77399372      -1.77399372
C        1.99419141       3.19754658      -1.40808073
O        1.50312385       3.69979411      -0.40162430
C        2.83877717       4.01418627      -2.31910137
C        3.03629898       5.36844263      -2.00349817
C        3.81291434       6.15920857      -2.83858014
Br       4.08655490       7.98256942      -2.42833817
C        4.38927405       5.61297733      -3.97937830
C        4.18971860       4.26047869      -4.28903882
C        3.41353729       3.42387148      -3.46920890
H        3.31005273       1.13697596      -7.02771051
H        2.75950792       2.69482443      -6.38974444
H        1.88077622       1.21586794      -5.98305534
H        4.79037965       1.77584740      -5.13099886
H        3.87876763       0.34406076      -4.76966138
H        2.23741913       0.29199630      -3.18934219
H        2.58065912       5.79216138      -1.11072639
H        4.99659229       6.22716681      -4.64027064
H        4.65969622       3.89292361      -5.19586048
C       -4.29266190      -5.43126707      -0.94098562
C       -3.03201978      -5.31432910      -1.78602100
N       -2.82159098      -3.92662804      -2.23440628
C       -2.03774019      -3.05546766      -1.49166636
C       -1.77399372      -1.77399372      -1.77399372
C       -2.38113742      -1.21063506      -3.00804624
O       -2.18799286      -0.05215844      -3.36439096
C       -3.25267057      -2.10790535      -3.81148890
C       -3.85634967      -1.58505359      -4.96683652
C       -4.68197625      -2.39512677      -5.73360003
Br      -5.50218944      -1.70598697      -7.28928608
C       -4.90937702      -3.71398706      -5.35826560
C       -4.30348044      -4.23098993      -4.20476573
C       -3.45815551      -3.44644171      -3.40202045
H       -4.42025545      -6.46121100      -0.59327274
H       -5.18678179      -5.15118735      -1.50610765
H       -4.23728347      -4.78060810      -0.06180792
H       -3.05394356      -6.01704442      -2.62623793
H       -2.17704661      -5.63799299      -1.17745017
H       -1.61483512      -3.50702609      -0.59689641
H       -3.67746731      -0.55106166      -5.25501792
H       -5.55762572      -4.35399395      -5.95241007
H       -4.52381228      -5.26519753      -3.95947050
C       -4.91646751       4.88880631       0.85964078
C       -3.55147207       5.07343052       1.50746729
N       -3.07094672       3.81248078       2.09919780
C       -2.26809984       2.94952208       1.36725228
C       -1.77399372       1.77399372       1.77399372
C       -2.11634965       1.33230846       3.15116061
O       -1.70049364       0.27919985       3.62484878
C       -3.00095872       2.21850347       3.95260263
C       -3.35670143       1.80475906       5.24677929
C       -4.18778468       2.60605571       6.01686266
Br      -4.67629642       2.06253352       7.75863255
C       -4.66451815       3.80864999       5.50846153
C       -4.30545327       4.21725096       4.21653188
C       -3.46384170       3.43800610       3.40476987
H       -5.24712194       5.82618595       0.40143131
H       -5.67290976       4.58262064       1.58854639
H       -4.87904871       4.12328801       0.07736279
H       -3.56939833       5.88834870       2.23947888
H       -2.84589534       5.41033102       0.73626342
H       -2.04348248       3.30963714       0.36563800
H       -2.98316628       0.86105940       5.63932121
H       -5.31871882       4.44046212       6.10484880
H       -4.71386805       5.16225880       3.87235346
C        1.64941302      -2.85686246       6.15863911
C        2.68840924      -2.03507642       5.40888421
N        2.66979747      -2.34442909       3.96839874
C        1.89315677      -1.59646316       3.09525428
C        1.77399372      -1.77399372       1.77399372
C        2.54639426      -2.88826495       1.16515950
O        2.51893604      -3.12451708      -0.03891086
C        3.36512466      -3.72998005       2.07696011
C        4.08105228      -4.80396782       1.52321968
C        4.84803737      -5.61323579       2.34942989
Br       5.81532474      -7.06231968       1.61981806
C        4.90489789      -5.36151216       3.71521963
C        4.18918521      -4.28760907       4.26244182
C        3.40330382      -3.44177800       3.46153585
H        1.65683652      -2.59625112       7.22165156
H        1.84203282      -3.93044504       6.07159893
H        0.64353635      -2.66662389       5.76953926
H        3.68523976      -2.16866248       5.84332366
H        2.46167881      -0.97114336       5.55966760
H        1.34361174      -0.79348425       3.58166163
H        4.03111568      -4.99868688       0.45374433
H        5.50132710      -5.99321638       4.36948626
H        4.26769826      -4.14510679       5.33567526
C       -0.00445707       0.01189536      -1.78238275
H       -0.66409135       0.67374010      -2.43557963
H        0.65740317      -0.63156657      -2.45157240
C       -0.90989263      -0.90692880      -0.91072765
C        0.90977584       0.90977584      -0.90977584
C       -0.00465871       1.77757030       0.00794375
H       -0.66225468       2.44313916      -0.64384735
H        0.64322798       2.43503045       0.67728295
C       -1.78241447       0.00034974      -0.00472694
H       -2.45427497      -0.65498947       0.64260836
H       -2.43311707       0.67328779      -0.65473579
C       -0.91132561       0.90220522       0.91563759
C       -0.01476271      -0.02253852       1.78660255
H       -0.67934791      -0.69751639       2.42135241
H        0.63392994       0.61504881       2.47327442
C        0.01484550      -1.77751727      -0.01636693
H        0.67870853      -2.42144646      -0.68295456
H       -0.62264859      -2.45592969       0.64226336
C        1.78714474       0.01002794       0.00389507
H        2.44202412       0.67113390       0.66197326
H        2.45385902      -0.65136977      -0.64189061
C        0.91606151      -0.90478549       0.90901405
