122
Properties=species:S:1:pos:R:3 pbc="F F F"
C        1.82644108       1.82644108      -1.82644108
C        0.96297251       2.85519763      -2.54372742
C        1.78414133       3.81537235      -3.41381256
Br       2.50358715       2.83359033      -4.94638538
N        0.90695038       4.88299824      -3.89632148
C        1.57323535       5.99574815      -4.57790144
C        0.52416875       7.03030069      -5.02221219
C        1.31278725       8.19605547      -5.60693970
S        2.77274216       8.32836537      -4.58777375
O        2.59797517       9.42020305      -3.65316672
O        3.93911470       8.22053229      -5.44099363
C        2.56209216       6.78455343      -3.71591214
H        2.33767948       1.14413641      -2.50908008
H        2.55616786       2.29581617      -1.16163022
H        0.41737473       3.43733861      -1.78785958
H        0.19917904       2.34483687      -3.14658373
H        2.63464930       4.20601157      -2.84661829
H        0.21272445       4.46377890      -4.51757514
H        2.08380095       5.63983309      -5.48153297
H       -0.06087320       7.37632830      -4.15998955
H       -0.17674327       6.62273630      -5.75857773
H        1.63557252       7.97810776      -6.62927818
H        0.75458439       9.13404793      -5.58256338
H        3.53173192       6.29132738      -3.61547440
H        2.15215572       7.01374776      -2.72706918
C       -1.82644108      -1.82644108      -1.82644108
C       -3.01186427      -2.33354943      -1.01648386
C       -3.97595460      -3.18897350      -1.84839814
Br      -3.10575852      -4.88461386      -2.29319048
N       -5.17466230      -3.45853402      -1.05307377
C       -6.28396580      -4.09466856      -1.76825057
C       -7.46309463      -4.31040812      -0.80317888
C       -8.60144238      -4.85925995      -1.65508008
S       -8.46904281      -4.00343980      -3.21639866
O       -9.46035226      -2.94921513      -3.26177755
O       -8.34059691      -4.98948384      -4.27055986
C       -6.86597686      -3.27441404      -2.92216684
H       -1.17733464      -2.62810977      -2.18545155
H       -2.14127558      -1.20419041      -2.66814825
H       -3.55717812      -1.46577446      -0.61962035
H       -2.65297345      -2.89487030      -0.14275589
H       -4.21174843      -2.68483741      -2.79069332
H       -4.90088153      -4.03665787      -0.25653909
H       -5.98250261      -5.08159907      -2.14106532
H       -7.76701476      -3.35699459      -0.35143530
H       -7.21451726      -5.00037259       0.01031908
H       -8.46879880      -5.92831691      -1.84584274
H       -9.58240707      -4.67699381      -1.21179481
H       -6.26880545      -3.33470183      -3.83502643
H       -7.02235758      -2.22747752      -2.64313757
C       -1.82644108       1.82644108       1.82644108
C       -3.22459744       1.22904435       1.90825577
C       -4.16027286       2.03256678       2.82048660
Br      -4.56299949       3.74924854       1.97131484
N       -5.40397484       1.28220017       3.00009509
C       -6.32907984       1.81332799       4.00447711
C       -7.58042176       0.92041077       4.07584911
C       -8.42109484       1.47487894       5.21980864
S       -7.24164649       1.98999868       6.45723611
O       -7.18402300       0.98729611       7.50002583
O       -7.46229325       3.39296916       6.74537821
C       -5.78523261       1.84229989       5.43502523
H       -1.80887183       2.81647609       1.36554805
H       -1.34067432       1.86819688       2.80474304
H       -3.14152866       0.20430830       2.29673596
H       -3.65104249       1.14001475       0.89954240
H       -3.66707941       2.24646644       3.77373331
H       -5.87261233       1.22748107       2.09398509
H       -6.66213523       2.82014625       3.72288553
H       -7.29766699      -0.11753148       4.29530914
H       -8.14609979       0.92050724       3.13796374
H       -8.98210815       2.35873540       4.90211491
H       -9.10100735       0.73078587       5.63940246
H       -5.12320173       2.69035265       5.62497932
H       -5.28421279       0.90640372       5.70235616
C        1.82644108      -1.82644108       1.82644108
C        1.80345636      -1.30252443       3.25591677
C        2.62812509      -2.16744100       4.21776015
Br       4.52820609      -1.95648489       3.79887188
N        2.38513576      -1.71337874       5.58775559
C        2.93976261      -2.55985228       6.64727004
C        2.60190919      -1.95386336       8.02090908
C        3.10831821      -2.95534991       9.05211429
S        2.79129898      -4.56036955       8.33721274
O        1.60367546      -5.12152065       8.94614882
O        4.04279085      -5.28788759       8.26996218
C        2.38063265      -3.98388647       6.69803862
H        2.82014850      -1.79658336       1.37416411
H        1.42049245      -2.83876383       1.75435797
H        0.76011586      -1.28170909       3.60074798
H        2.15310628      -0.26107876       3.27641460
H        2.37870432      -3.22459066       4.08398418
H        2.75397275      -0.76473089       5.67537485
H        4.03338794      -2.60243756       6.56934151
H        1.51616375      -1.83106560       8.12821530
H        3.06447966      -0.97203058       8.16806053
H        4.18862910      -2.85899579       9.19533356
H        2.59412498      -2.86598140      10.01108931
H        2.83221853      -4.64849617       5.95781901
H        1.29019400      -3.99999008       6.60278858
C       -0.00445707       0.01189536      -1.78238275
H       -0.66409135       0.67374010      -2.43557963
H        0.65740317      -0.63156657      -2.45157240
C       -0.90989263      -0.90692880      -0.91072765
C        0.90977584       0.90977584      -0.90977584
C       -0.00465871       1.77757030       0.00794375
H       -0.66225468       2.44313916      -0.64384735
H        0.64322798       2.43503045       0.67728295
C       -1.78241447       0.00034974      -0.00472694
H       -2.45427497      -0.65498947       0.64260836
H       -2.43311707       0.67328779      -0.65473579
C       -0.91132561       0.90220522       0.91563759
C       -0.01476271      -0.02253852       1.78660255
H       -0.67934791      -0.69751639       2.42135241
H        0.63392994       0.61504881       2.47327442
C        0.01484550      -1.77751727      -0.01636693
H        0.67870853      -2.42144646      -0.68295456
H       -0.62264859      -2.45592969       0.64226336
C        1.78714474       0.01002794       0.00389507
H        2.44202412       0.67113390       0.66197326
H        2.45385902      -0.65136977      -0.64189061
C        0.91606151      -0.90478549       0.90901405
