130
Properties=species:S:1:pos:R:3 pbc="F F F"
C        1.82644108       1.82644108      -1.82644108
C        0.96297251       2.85519763      -2.54372742
C        1.78414133       3.81537235      -3.41381256
N        0.90695038       4.88299824      -3.89632148
C        1.57323535       5.99574815      -4.57790144
C        0.52416875       7.03030069      -5.02221219
C        1.31278725       8.19605547      -5.60693970
S        2.77274216       8.32836537      -4.58777375
O        2.59797517       9.42020305      -3.65316672
O        3.93911470       8.22053229      -5.44099363
C        2.56209216       6.78455343      -3.71591214
H        2.33767948       1.14413641      -2.50908008
H        2.55616786       2.29581617      -1.16163022
H        0.41737473       3.43733861      -1.78785958
H        0.19917904       2.34483687      -3.14658373
H        2.63464930       4.20601157      -2.84661829
H        0.21272445       4.46377890      -4.51757514
H        2.08380095       5.63983309      -5.48153297
H       -0.06087320       7.37632830      -4.15998955
H       -0.17674327       6.62273630      -5.75857773
H        1.63557252       7.97810776      -6.62927818
H        0.75458439       9.13404793      -5.58256338
H        3.53173192       6.29132738      -3.61547440
H        2.15215572       7.01374776      -2.72706918
C        2.31349443       3.09299780      -4.54144739
C        2.75682765       2.48800912      -5.48584156
Br       3.47365996       1.50979358      -7.01284706
C       -1.82644108      -1.82644108      -1.82644108
C       -3.29214622      -1.54213390      -1.52761744
C       -4.24613513      -2.35510362      -2.41208750
N       -5.61190465      -1.87309251      -2.20127294
C       -6.62400209      -2.40596586      -3.11691699
C       -7.99884582      -1.80794436      -2.76989146
C       -8.95607323      -2.32016650      -3.83954268
S       -8.00138932      -2.33934586      -5.34814610
O       -8.35012544      -1.17962152      -6.14159798
O       -8.02729816      -3.68298904      -5.89035342
C       -6.40749217      -2.06230953      -4.59275604
H       -1.53414122      -2.85461838      -1.60213637
H       -1.56520438      -1.58776529      -2.86064458
H       -3.47826002      -0.47161474      -1.69269816
H       -3.49820602      -1.72793297      -0.46446065
H       -3.94184032      -2.28449875      -3.46094009
H       -5.87467249      -2.08281879      -1.23658721
H       -6.70424515      -3.49464510      -3.00627675
H       -7.95890682      -0.71131601      -2.80522181
H       -8.33815706      -2.09699209      -1.76942162
H       -9.26907715      -3.34671116      -3.62717015
H       -9.83165071      -1.67923457      -3.96031041
H       -5.66304579      -2.69896476      -5.07652316
H       -6.15035696      -1.00775883      -4.73485687
C       -4.17118752      -3.74260042      -2.03415168
C       -4.10841889      -4.90462899      -1.71763044
Br      -4.00692734      -6.78353091      -1.20584236
C       -1.82644108       1.82644108       1.82644108
C       -3.25808050       1.30891672       1.79490034
C       -4.19973184       2.11418004       2.69941437
N       -5.49171117       1.42963508       2.76492385
C       -6.44342938       1.95764666       3.74580890
C       -7.74457755       1.13749825       3.69460584
C       -8.61907431       1.67602166       4.82068645
S       -7.48780920       2.05098017       6.15009190
O       -7.54770970       0.99011768       7.13351757
O       -7.64660185       3.44629673       6.50774204
C       -5.98413089       1.87479180       5.20363505
H       -1.72661973       2.83784157       1.42643467
H       -1.39764753       1.78493566       2.83103106
H       -3.25525692       0.26102629       2.12628971
H       -3.62858653       1.30149885       0.76051426
H       -3.75247296       2.24520842       3.68959778
H       -5.90841140       1.45318985       1.83247724
H       -6.70271762       2.99647007       3.50597931
H       -7.53349290       0.07407964       3.86787211
H       -8.25307230       1.22318050       2.72831797
H       -9.11028699       2.60774306       4.52492840
H       -9.36292618       0.95111572       5.15715379
H       -5.28826257       2.67042831       5.47984283
H       -5.55264146       0.89754474       5.44278646
C       -4.38789147       3.42538328       2.13466487
C       -4.54547516       4.52351600       1.66168716
Br      -4.80027466       6.29910373       0.89692221
C        1.82644108      -1.82644108       1.82644108
C        1.03588614      -2.27975654       3.04625488
C        1.83920831      -3.21445234       3.95966559
N        0.94547258      -3.75685869       4.98393884
C        1.50547627      -4.82321115       5.81819751
C        0.45133201      -5.28590470       6.83944492
C        1.07532130      -6.46664304       7.57381807
S        2.01113520      -7.34503661       6.33270947
O        1.25754504      -8.50595619       5.90784371
O        3.38779090      -7.43696360       6.77588611
C        1.90533660      -6.09357913       5.06364200
H        2.69509372      -1.21512524       2.08067701
H        2.13977469      -2.66910779       1.20473176
H        0.13589790      -2.80689650       2.69977852
H        0.68058675      -1.40373252       3.60628037
H        2.31518067      -4.00319775       3.36890073
H        0.63668393      -2.98270506       5.57468950
H        2.36825805      -4.45170650       6.38520246
H       -0.46205731      -5.61240545       6.32509651
H        0.17332370      -4.49122238       7.54002468
H        1.77473708      -6.12545757       8.34276380
H        0.32755027      -7.12856464       8.01508078
H        2.87108128      -6.00724284       4.56020958
H        1.13583420      -6.40648093       4.35065753
C        2.88789085      -2.46194704       4.59810172
C        3.76616249      -1.83172386       5.13279198
Br       5.18625343      -0.81270627       5.99734091
C       -0.00445707       0.01189536      -1.78238275
H       -0.66409135       0.67374010      -2.43557963
H        0.65740317      -0.63156657      -2.45157240
C       -0.90989263      -0.90692880      -0.91072765
C        0.90977584       0.90977584      -0.90977584
C       -0.00465871       1.77757030       0.00794375
H       -0.66225468       2.44313916      -0.64384735
H        0.64322798       2.43503045       0.67728295
C       -1.78241447       0.00034974      -0.00472694
H       -2.45427497      -0.65498947       0.64260836
H       -2.43311707       0.67328779      -0.65473579
C       -0.91132561       0.90220522       0.91563759
C       -0.01476271      -0.02253852       1.78660255
H       -0.67934791      -0.69751639       2.42135241
H        0.63392994       0.61504881       2.47327442
C        0.01484550      -1.77751727      -0.01636693
H        0.67870853      -2.42144646      -0.68295456
H       -0.62264859      -2.45592969       0.64226336
C        1.78714474       0.01002794       0.00389507
H        2.44202412       0.67113390       0.66197326
H        2.45385902      -0.65136977      -0.64189061
C        0.91606151      -0.90478549       0.90901405
