157
Properties=species:S:1:pos:R:3 pbc="F F F"
C        0.00000000       0.00000000       0.00000000
Cl       6.34012055       9.58059845      -3.15642457
C        5.43394378       8.35462593      -2.36275632
C        4.04614694       8.37222777      -2.42088541
C        3.29927769       7.37879665      -1.77116940
C        3.91700713       6.34239790      -1.04658943
C        5.33587953       6.34821589      -1.02363951
C        6.08541819       7.34606247      -1.67010085
C        6.09042739       5.27670874      -0.32376028
O        7.31639307       5.27626057      -0.30805721
C        5.28068606       4.23078658       0.32628842
C        3.85668120       4.32348059       0.29893226
H        3.24438548       3.56187388       0.77063762
N        3.18919123       5.33042392      -0.37332360
C        1.70835808       5.31597491      -0.40423521
C        1.11937165       4.58681382      -1.63158473
N        1.41378127       3.13085114      -1.64564424
C        0.64043704       2.27226201      -0.88681347
H       -0.16333944       2.71601807      -0.30868654
C        0.86055255       0.86055255      -0.86055255
C        1.93432209       0.27163815      -1.68346045
O        2.15377009      -0.93348764      -1.72337059
C        2.75192566       1.22946935      -2.47017024
C        2.48279577       2.62164574      -2.42815012
C        3.33285659       3.43938809      -3.19540830
C        4.38133183       2.91247806      -3.96194698
C        4.60361089       1.54318395      -3.98972799
C        3.79597348       0.69621795      -3.24669570
Cl       5.87800797       0.90219149      -4.94758954
Br       6.08255958       2.76827999       1.13111371
H        3.53308697       9.15978643      -2.96876944
H        2.22064407       7.45454807      -1.85973503
H        7.17308880       7.32749858      -1.63022747
H        1.30188347       6.33189165      -0.34296209
H        1.33676419       4.82772929       0.50727695
H        1.39731591       5.08381056      -2.56511962
H        0.02756669       4.70730589      -1.58665711
H        3.22547872       4.51750604      -3.22034118
H        5.01785967       3.58385777      -4.53426231
H        3.97298901      -0.37739810      -3.26526619
Cl     -10.06135841      -4.31438903      -4.70139613
C       -8.83251385      -3.42031391      -3.89849827
C       -8.43390673      -3.78625631      -2.61909708
C       -7.43596073      -3.05841094      -1.95487206
C       -6.80997673      -1.94681567      -2.54920206
C       -7.23162325      -1.61355178      -3.86255990
C       -8.23517388      -2.33905586      -4.52735178
C       -6.60713315      -0.48454735      -4.59921591
O       -6.96544293      -0.19884953      -5.73641840
C       -5.54216066       0.24492348      -3.88794703
C       -5.20979022      -0.12212445      -2.54931487
H       -4.42738069       0.40251645      -2.01075750
N       -5.80548895      -1.18745586      -1.89999393
C       -5.35609060      -1.53932649      -0.53315111
C       -4.23514985      -2.60114393      -0.50147641
N       -2.96152225      -2.12726597      -1.10148843
C       -2.10558801      -1.34273508      -0.35118943
H       -2.41367929      -1.11059607       0.66291020
C       -0.86055255      -0.86055255      -0.86055255
C       -0.44142563      -1.21890507      -2.22908998
O        0.62605087      -0.85835363      -2.71135028
C       -1.39644081      -2.04837423      -3.00675021
C       -2.62417376      -2.47214373      -2.43627415
C       -3.46243852      -3.23573124      -3.26948322
C       -3.10618000      -3.56514877      -4.58442809
C       -1.88932632      -3.14510445      -5.10209206
C       -1.03078694      -2.38623263      -4.32186756
Cl      -1.45001462      -3.56969887      -6.70807551
Br      -4.59046837       1.59541851      -4.72467600
H       -8.89754535      -4.63806670      -2.12603078
H       -7.17436591      -3.40122044      -0.95934083
H       -8.54188082      -2.05616437      -5.53276966
H       -6.19789561      -1.86648955       0.08764796
H       -4.99519208      -0.63114248      -0.03088197
H       -4.57219301      -3.55306906      -0.92098402
H       -4.04090473      -2.83551650       0.55489154
H       -4.42978644      -3.59509431      -2.93844520
H       -3.78935419      -4.15197939      -5.19464618
H       -0.07819624      -2.05329539      -4.72936546
Cl     -10.03550721       4.94567834       4.09595803
C       -8.82146086       4.00294400       3.32692117
C       -8.23999386       4.45148656       2.14777970
C       -7.25282516       3.68542096       1.51099761
C       -6.82023247       2.45228993       2.03347206
C       -7.42500750       2.03516562       3.24756181
C       -8.41802247       2.79951473       3.88404431
C       -7.01234562       0.77014001       3.90841078
O       -7.52900591       0.41100134       4.96070361
C       -5.95365065      -0.00044852       3.23198208
C       -5.43056222       0.46311859       1.98754872
H       -4.64971451      -0.09019725       1.47610448
N       -5.83165193       1.65276556       1.40852125
C       -5.19127202       2.09061270       0.14668348
C       -3.96951729       3.01158479       0.35666811
N       -2.83130438       2.33198880       1.02698347
C       -1.98025458       1.53553410       0.28372384
H       -2.19026360       1.44826772      -0.77716616
C       -0.86055255       0.86055255       0.86055255
C       -0.56911865       1.02244832       2.29785372
O        0.39110106       0.49118011       2.84357399
C       -1.51652518       1.87200686       3.06303320
C       -2.61810060       2.49366279       2.42082824
C       -3.46357940       3.25870243       3.24537116
C       -3.23099623       3.40497081       4.61978983
C       -2.13360319       2.79378532       5.20913432
C       -1.27380083       2.02549550       4.43959080
Cl      -1.84306485       2.99392736       6.89079679
Br      -5.25268031      -1.53292947       3.99997501
H       -8.55123728       5.39848658       1.71191898
H       -6.84227375       4.09746252       0.59519089
H       -8.86802119       2.45088967       4.81190399
H       -5.91590810       2.57700732      -0.51617822
H       -4.87104948       1.20397382      -0.41780677
H       -4.25193427       3.94728531       0.84702652
H       -3.62970498       3.33076134      -0.63893664
H       -4.34270896       3.76128820       2.85932878
H       -3.91571236       4.00061823       5.21964917
H       -0.41542107       1.54274229       4.90269373
Cl       3.89956374      -9.99315565       5.18442419
C        3.14079368      -8.78655703       4.22397533
C        2.00422618      -8.14091744       4.69411651
C        1.37583021      -7.15932224       3.91409128
C        1.86444406      -6.79643375       2.64511666
C        3.03626936      -7.46553681       2.20592877
C        3.66406970      -8.45302365       2.98448816
C        3.66097659      -7.12938006       0.90053975
O        4.67702637      -7.70171435       0.52197013
C        2.99559223      -6.07494424       0.11464775
C        1.79217492      -5.48436857       0.60468604
H        1.28950403      -4.70557120       0.04054651
N        1.24656318      -5.81520698       1.83116859
C        0.02928577      -5.10781997       2.29146246
C        0.32362969      -3.86069643       3.15344407
N        1.00963841      -2.77776952       2.40286872
C        0.26841604      -1.92895577       1.60214070
H       -0.80249131      -2.09914246       1.56471401
C        0.86055255      -0.86055255       0.86055255
C        2.31345886      -0.62138473       0.95457710
O        2.87414928       0.29462744       0.36413119
C        3.07496983      -1.56522669       1.81136873
C        2.41610861      -2.61496084       2.50152218
C        3.23743302      -3.46271832       3.26750164
C        4.62463781      -3.28037399       3.35074506
C        5.23098245      -2.23227221       2.67326817
C        4.46499601      -1.37256310       1.90132802
Cl       6.92937691      -2.00239006       2.79602203
Br       3.72766438      -5.46565350      -1.47359202
H        1.59523835      -8.39726419       5.66914029
H        0.49406813      -6.69639168       4.34446736
H        4.55889668      -8.95336306       2.61855510
H       -0.64102368      -5.78562732       2.83213357
H       -0.55771539      -4.79972815       1.41520378
H        0.84006740      -4.12613971       4.08003899
H       -0.64430670      -3.46877584       3.49706055
H        2.83816019      -4.30533647       3.81982928
H        5.22103037      -3.96512029       3.94982910
H        4.94120375      -0.55300652       1.36664683
