186
Properties=species:S:1:pos:R:3 pbc="F F F"
Cl       7.25002458      10.49050247      -4.06632860
C        6.34384781       9.26452995      -3.27266034
C        4.95605097       9.28213180      -3.33078943
C        4.20918171       8.28870067      -2.68107342
C        4.82691115       7.25230193      -1.95649345
C        6.24578355       7.25811991      -1.93354354
C        6.99532221       8.25596650      -2.58000488
C        7.00033141       6.18661276      -1.23366431
O        8.22629709       6.18616460      -1.21796124
C        6.19059008       5.14069060      -0.58361560
C        4.76658523       5.23338461      -0.61097177
H        4.15428950       4.47177790      -0.13926641
N        4.09909525       6.24032794      -1.28322762
C        2.61826211       6.22587893      -1.31413923
C        2.02927567       5.49671784      -2.54148875
N        2.32368530       4.04075517      -2.55554826
C        1.55034106       3.18216604      -1.79671749
H        0.74656458       3.62592209      -1.21859056
C        1.77045657       1.77045657      -1.77045657
C        2.84422611       1.18154217      -2.59336447
O        3.06367411      -0.02358362      -2.63327462
C        3.66182968       2.13937337      -3.38007426
C        3.39269980       3.53154977      -3.33805414
C        4.24276062       4.34929212      -4.10531232
C        5.29123585       3.82238208      -4.87185100
C        5.51351491       2.45308798      -4.89963201
C        4.70587751       1.60612197      -4.15659972
Cl       6.78791200       1.81209551      -5.85749357
H        4.44299100      10.06969045      -3.87867346
H        3.13054809       8.36445210      -2.76963905
H        8.08299282       8.23740260      -2.54013149
H        2.21178749       7.24179567      -1.25286611
H        2.24666822       5.73763331      -0.40262708
H        2.30721994       5.99371459      -3.47502365
H        0.93747071       5.61720991      -2.49656114
H        4.13538275       5.42741007      -4.13024520
H        5.92776369       4.49376180      -5.44416634
H        4.88289303       0.53250592      -4.17517022
C        6.81409828       4.00349773       0.04218779
C        7.33628641       3.05109869       0.56629813
Br       8.18062043       1.51115001       1.41374022
Cl      -9.83195333      -3.66559008      -8.30931223
C       -8.63494469      -2.91706155      -7.32903187
C       -8.87186874      -2.72301937      -5.97408408
C       -7.90262815      -2.10781739      -5.16851027
C       -6.67231236      -1.67007062      -5.69332355
C       -6.45975342      -1.90033349      -7.07736009
C       -7.43230284      -2.51218156      -7.88680918
C       -5.17906823      -1.51634070      -7.72519955
O       -4.99082213      -1.72013599      -8.91946481
C       -4.16822025      -0.89750555      -6.84917048
C       -4.47812154      -0.65574392      -5.47707615
H       -3.74576828      -0.20267257      -4.81689296
N       -5.67796102      -1.03817348      -4.90651631
C       -5.89290067      -0.80588594      -3.45949366
C       -5.49207968      -2.00403049      -2.57137210
N       -4.03456709      -2.29000405      -2.59541758
C       -3.18093394      -1.54363484      -1.80465581
H       -3.63040999      -0.77099187      -1.18967537
C       -1.77045657      -1.77045657      -1.77045657
C       -1.18282864      -2.85122827      -2.58507585
O        0.01487168      -3.11109255      -2.57714424
C       -2.13125343      -3.61763343      -3.43239046
C       -3.51793873      -3.31861594      -3.42574904
C       -4.32178601      -4.09304687      -4.28253218
C       -3.78819114      -5.10513703      -5.09214077
C       -2.42828022      -5.37848812      -5.05946655
C       -1.59394508      -4.63959956      -4.23505456
Cl      -1.78384913      -6.63416903      -6.03948291
H       -9.81288498      -3.04521772      -5.53325220
H       -8.15487197      -1.98981890      -4.11994837
H       -7.24299523      -2.67050666      -8.94702503
H       -6.93104510      -0.52039498      -3.25500920
H       -5.31144314       0.07305350      -3.14853896
H       -6.10011192      -2.88633277      -2.78951348
H       -5.76596532      -1.74713544      -1.53814100
H       -5.39067073      -3.93541324      -4.36695405
H       -4.44713424      -5.67397332      -5.74458427
H       -0.52669976      -4.85129051      -4.21257891
C       -2.85667736      -0.57203946      -7.34669140
C       -1.75826019      -0.29946160      -7.76336518
Br       0.01778747       0.14127373      -8.43709143
Cl      -8.38491650       9.77425840       3.64768075
C       -7.39912140       8.58015039       2.90176631
C       -6.04968231       8.83119946       2.68809043
C       -5.23975618       7.86433942       2.07486020
C       -5.75461605       6.62237778       1.65871270
C       -7.13299827       6.39578279       1.90866595
C       -7.94688103       7.36586229       2.51855027
C       -7.76958534       5.10262076       1.54840237
O       -8.95884938       4.90232706       1.76924650
C       -6.88874415       4.09497587       0.93117626
C       -5.52364747       4.41861021       0.66868393
H       -4.86003959       3.68883081       0.21646341
N       -4.96334699       5.62997480       1.02932902
C       -3.52204241       5.85969499       0.77654288
C       -2.61444977       5.48461715       1.96841535
N       -2.61695979       4.03056998       2.27245896
C       -1.82487738       3.17749568       1.52685153
H       -1.22499642       3.62485967       0.74122114
C       -1.77045657       1.77045657       1.77045657
C       -2.56447020       1.18633433       2.86832823
O       -2.53854220      -0.00787211       3.14269502
C       -3.41402500       2.13374260       3.63350973
C       -3.42819939       3.51659905       3.31750527
C       -4.28533409       4.31943525       4.09259572
C       -5.07584595       3.78854923       5.12107376
C       -5.02300693       2.43262607       5.41060190
C       -4.19742675       1.59935075       4.67182169
Cl      -5.97955171       1.79185199       6.68609737
H       -5.61662354       9.78144891       2.99328246
H       -4.19591670       8.12790188       1.94082067
H       -9.00265859       7.16558309       2.69228523
H       -3.33392526       6.89664899       0.47587503
H       -3.21468302       5.27124975      -0.09900416
H       -2.82929763       6.10080918       2.84585136
H       -1.58790436       5.76791196       1.69542544
H       -4.38489711       5.38517568       3.92296523
H       -5.72939185       4.44645673       5.68984325
H       -4.15916010       0.53516122       4.89624785
C       -7.37393818       2.77352246       0.62794758
C       -7.78028818       1.66680523       0.37399356
Br      -8.43732176      -0.12266293      -0.03662861
Cl       3.70149520      -8.17364051       9.93171994
C        2.94806161      -7.20317680       8.72979970
C        2.78867590      -5.83945837       8.94083792
C        2.16976240      -5.04163757       7.96755583
C        1.69365290      -5.58314201       6.75891162
C        1.88915140      -6.97620917       6.57208643
C        2.50470191      -7.77775761       7.54883406
C        1.46299350      -7.64295997       5.31465500
O        1.63668179      -8.84523512       5.14850602
C        0.84105296      -6.77553772       4.29830560
C        0.63595599      -5.39204609       4.58293953
H        0.18118903      -4.73800610       3.84613868
N        1.05709066      -4.80425292       5.76130724
C        0.86098421      -3.34813350       5.94916256
C        2.06890875      -2.49561471       5.50295881
N        2.32198455      -2.55751682       4.04048735
C        1.57420336      -1.76909763       3.18592360
H        0.82518185      -1.12759353       3.63830185
C        1.77045657      -1.77045657       1.77045657
C        2.82008286      -2.62130953       1.17774036
O        3.05350100      -2.64504967      -0.02518557
C        3.58876335      -3.46464626       2.12786771
C        3.32070650      -3.42138414       3.52021307
C        4.09400592      -4.27749123       4.32586790
C        5.07628723      -5.12064732       3.78853439
C        5.32013306      -5.12346547       2.42263637
C        4.58098403      -4.30116002       1.58645515
Cl       6.53974889      -6.14473461       1.77301758
H        3.14107552      -5.38559996       9.86467943
H        2.08009227      -3.98550886       8.19903812
H        2.63581929      -8.84506471       7.37964291
H        0.60301921      -3.11496515       6.98846492
H       -0.02366676      -3.03046890       5.38012647
H        2.95951739      -2.72000972       6.09643106
H        1.84055552      -1.45126868       5.75941756
H        3.95826470      -4.33525381       5.39951951
H        5.64530733      -5.77110076       4.44928374
H        4.76945235      -4.30647426       0.51464256
C        0.47596424      -7.29400440       3.00543959
C        0.17020243      -7.72822024       1.92266430
Br      -0.32418856      -8.43031054       0.17190824
C       -0.00445707       0.01189536      -1.78238275
H       -0.66409135       0.67374010      -2.43557963
H        0.65740317      -0.63156657      -2.45157240
C       -0.90989263      -0.90692880      -0.91072765
C        0.90977584       0.90977584      -0.90977584
C       -0.00465871       1.77757030       0.00794375
H       -0.66225468       2.44313916      -0.64384735
H        0.64322798       2.43503045       0.67728295
C       -1.78241447       0.00034974      -0.00472694
H       -2.45427497      -0.65498947       0.64260836
H       -2.43311707       0.67328779      -0.65473579
C       -0.91132561       0.90220522       0.91563759
C       -0.01476271      -0.02253852       1.78660255
H       -0.67934791      -0.69751639       2.42135241
H        0.63392994       0.61504881       2.47327442
C        0.01484550      -1.77751727      -0.01636693
H        0.67870853      -2.42144646      -0.68295456
H       -0.62264859      -2.45592969       0.64226336
C        1.78714474       0.01002794       0.00389507
H        2.44202412       0.67113390       0.66197326
H        2.45385902      -0.65136977      -0.64189061
C        0.91606151      -0.90478549       0.90901405
