186
Properties=species:S:1:pos:R:3 pbc="F F F"
C        1.82648485       1.82648485      -1.82648485
N        1.15802487       2.63811157      -2.85507841
C       -0.13675934       2.43291175      -3.31101658
C       -0.80326383       3.15443740      -4.22530735
C       -2.18902731       2.89718431      -4.57790777
C       -3.14436671       3.83424817      -4.49804817
N       -4.49262809       3.68891479      -4.78961734
C       -5.41169292       4.82053415      -4.64741300
C       -4.97181641       2.42606188      -5.20195261
C       -4.06536104       1.34800229      -5.33852525
C       -2.62464509       1.54709962      -5.03562238
O       -1.82981462       0.61837549      -5.15433766
C       -4.48759142       0.07509080      -5.74786118
C       -5.82709292      -0.13766669      -6.02167024
C       -6.74813442       0.89068175      -5.89486685
C       -6.32368534       2.16159385      -5.48899067
F       -6.24175798      -1.35013458      -6.40969181
C       -0.05941183       4.28032541      -4.85452889
O       -0.59279662       5.04263207      -5.65719399
C        1.36441224       4.46135679      -4.48218550
C        1.94688556       3.63462235      -3.49351307
C        3.30607648       3.85858876      -3.19775822
C        4.03787590       4.86331970      -3.84260706
C        3.42616449       5.65746828      -4.80020022
C        2.09649768       5.46680596      -5.13117576
F        4.13213314       6.61710628      -5.41057421
H        2.55910648       1.15013823      -2.27774853
H        2.31936072       2.46820885      -1.08765215
H       -0.65152242       1.59550409      -2.84816465
H       -2.88243894       4.83903375      -4.16794449
H       -6.16851192       4.87378865      -5.43531078
H       -4.87656108       5.77691421      -4.65580759
H       -3.78357199      -0.74543088      -5.85059949
H       -7.79584747       0.70056168      -6.10915107
H       -7.09015529       2.92476025      -5.39807765
H        3.84228543       3.26307327      -2.46507254
H        5.08421184       5.02771446      -3.60120808
H        1.63859330       6.09628694      -5.88892663
C       -6.08078355       4.77753356      -3.37302347
C       -6.64114695       4.74152057      -2.30572223
Br      -7.54720717       4.68329060      -0.57998641
C       -1.82648485      -1.82648485      -1.82648485
N       -2.02109820      -3.22288511      -1.40723154
C       -1.22877007      -3.89294960      -0.48544932
C       -1.37449662      -5.15338015      -0.04860415
C       -0.52899395      -5.73621773       0.97914690
C       -1.02023782      -6.27283299       2.10514119
N       -0.30436621      -6.83390093       3.15236309
C       -0.99842663      -7.37914486       4.32131725
C        1.10627414      -6.84928928       3.08681705
C        1.75609871      -6.32263880       1.94537358
C        0.95458237      -5.74733509       0.83467581
O        1.50940345      -5.29088385      -0.16141813
C        3.15333514      -6.31646686       1.82777116
C        3.92099577      -6.83397121       2.85606481
C        3.32337036      -7.35436179       3.99357726
C        1.92798581      -7.36225877       4.10737378
F        5.25610675      -6.82973622       2.75583022
C       -2.48761453      -5.93996778      -0.64786015
O       -2.74942529      -7.08151283      -0.27609131
C       -3.28512621      -5.30071556      -1.72211276
C       -3.03402535      -3.95680777      -2.08418787
C       -3.82488876      -3.41885489      -3.11867981
C       -4.82183702      -4.17669936      -3.74526627
C       -5.04121821      -5.48847033      -3.35414445
C       -4.28172195      -6.06242934      -2.35032810
F       -5.99754058      -6.20553488      -3.95673817
H       -1.38387080      -1.77691095      -2.82621148
H       -2.77787450      -1.28305205      -1.81429516
H       -0.41404824      -3.30226747      -0.07583061
H       -2.09803629      -6.29042017       2.26391716
H       -0.55073029      -8.29877812       4.70892091
H       -2.04684115      -7.60627963       4.09696005
H        3.64226976      -5.91081675       0.94695037
H        3.94487076      -7.75028049       4.79154445
H        1.51666973      -7.77327018       5.02391784
H       -3.69354736      -2.40168643      -3.47519745
H       -5.42718453      -3.74736907      -4.53858078
H       -4.46614908      -7.09391574      -2.06374206
C       -1.04514556      -6.40980421       5.38517628
C       -1.08427267      -5.59798141       6.27615822
Br      -1.14753789      -4.28533261       7.71680066
C       -1.82648485       1.82648485       1.82648485
N       -1.25584217       2.29770869       3.09766399
C       -0.13595201       1.75708845       3.71412853
C        0.44101606       2.16119457       4.85630242
C        1.66100674       1.56921011       5.37786140
C        2.75686138       2.29001598       5.65477503
N        3.97215770       1.82394114       6.13412061
C        5.07875102       2.75028703       6.38471822
C        4.13583656       0.43848166       6.35355298
C        3.05161535      -0.43786770       6.11064956
C        1.75861499       0.10092306       5.61576885
O        0.81092751      -0.65135151       5.40517754
C        3.15930107      -1.82082901       6.31549064
C        4.35839044      -2.34709794       6.76239902
C        5.44625795      -1.52331527       7.00698739
C        5.33538527      -0.14241142       6.80469587
F        4.47338248      -3.66663399       6.95781572
C       -0.21468286       3.29271838       5.56804122
O        0.26376275       3.78233627       6.58845592
C       -1.48020760       3.82237557       5.00537136
C       -1.97870727       3.31219078       3.78412294
C       -3.19037771       3.85701779       3.31502796
C       -3.85816177       4.86663057       4.01901031
C       -3.33061259       5.34466155       5.20855885
C       -2.14899564       4.83203877       5.71344500
F       -3.97405095       6.31133741       5.87442526
H       -2.73974195       1.24847510       1.99877618
H       -2.04144639       2.67122720       1.16254813
H        0.31357502       0.92251704       3.18320431
H        2.74208710       3.36821000       5.49841639
H        5.65565875       2.51303802       7.28320824
H        4.72296568       3.78061039       6.49851602
H        2.32073830      -2.48472795       6.12706287
H        6.38010979      -1.95782002       7.35179509
H        6.22202002       0.45138290       7.00331973
H       -3.65768731       3.51692538       2.39581855
H       -4.78947463       5.28064104       3.64301870
H       -1.75656771       5.21670028       6.65053889
C        5.97796289       2.78714428       5.26059210
C        6.73105284       2.81801223       4.31913647
Br       7.94873559       2.86792309       2.79688234
C        1.82648485      -1.82648485       1.82648485
N        2.72012119      -2.77989289       1.15120077
C        2.60058624      -3.17926494      -0.17268220
C        3.39848069      -4.02307248      -0.84507225
C        3.22617458      -4.31726778      -2.25737758
C        4.20280508      -4.14442020      -3.15929566
N        4.13726776      -4.37425037      -4.52561409
C        5.30309491      -4.13169774      -5.37853842
C        2.92128784      -4.82204828      -5.08713804
C        1.80921179      -5.05577520      -4.24382048
C        1.92337168      -4.81672102      -2.78201579
O        0.96472736      -5.01983309      -2.04166192
C        0.58031161      -5.50393708      -4.74888814
C        0.44619743      -5.71972945      -6.10901624
C        1.50987614      -5.49739915      -6.96986112
C        2.73684977      -5.05289653      -6.46284712
F       -0.72384428      -6.14410818      -6.60246465
C        4.51765897      -4.63422912      -0.07644563
O        5.34421314      -5.37143877      -0.60862247
C        4.61110510      -4.32591837       1.37093105
C        3.70854002      -3.40872259       1.95775838
C        3.85178354      -3.17149270       3.33914722
C        4.85146588      -3.80344802       4.08888876
C        5.72136035      -4.68972976       3.47274288
C        5.61169909      -4.96198501       2.12079530
F        6.67556048      -5.28815608       4.19609707
H        1.13936667      -2.34608226       2.50154429
H        2.40571743      -1.08349570       2.38600858
H        1.76658042      -2.73177854      -0.70621264
H        5.17592377      -3.78008607      -2.83147055
H        5.43230152      -4.87695007      -6.16866408
H        6.23188249      -4.12114522      -4.79686698
H       -0.26683864      -5.68133500      -4.09289974
H        1.38133183      -5.66744270      -8.03490926
H        3.53037900      -4.88689893      -7.18459532
H        3.19500992      -2.49622667       3.87919465
H        4.95304572      -3.60752125       5.15256740
H        6.29986034      -5.66457440       1.65937213
C        5.22804170      -2.82871649      -5.98698470
C        5.16518463      -1.73746970      -6.49655847
Br       5.06355006       0.02698408      -7.32049614
C       -0.00445707       0.01189536      -1.78238275
H       -0.66409135       0.67374010      -2.43557963
H        0.65740317      -0.63156657      -2.45157240
C       -0.90989263      -0.90692880      -0.91072765
C        0.90977584       0.90977584      -0.90977584
C       -0.00465871       1.77757030       0.00794375
H       -0.66225468       2.44313916      -0.64384735
H        0.64322798       2.43503045       0.67728295
C       -1.78241447       0.00034974      -0.00472694
H       -2.45427497      -0.65498947       0.64260836
H       -2.43311707       0.67328779      -0.65473579
C       -0.91132561       0.90220522       0.91563759
C       -0.01476271      -0.02253852       1.78660255
H       -0.67934791      -0.69751639       2.42135241
H        0.63392994       0.61504881       2.47327442
C        0.01484550      -1.77751727      -0.01636693
H        0.67870853      -2.42144646      -0.68295456
H       -0.62264859      -2.45592969       0.64226336
C        1.78714474       0.01002794       0.00389507
H        2.44202412       0.67113390       0.66197326
H        2.45385902      -0.65136977      -0.64189061
C        0.91606151      -0.90478549       0.90901405
