186
Properties=species:S:1:pos:R:3 pbc="F F F"
O        1.51971082       3.71766031      -0.43364670
C        2.02863502       3.17643905      -1.41025601
C        1.77006590       1.77006590      -1.77006590
C        2.24050473       1.27022472      -3.02209737
H        1.88249844       0.31626539      -3.39825773
N        2.99130803       2.03847232      -3.89695150
C        3.48198844       3.31626331      -3.48396148
C        2.97670748       3.90700212      -2.29257498
C        3.36549334       5.19170040      -1.86844300
C        4.30342912       5.91462300      -2.58822286
C        4.88113882       5.33853718      -3.70994194
C        4.49768079       4.05590741      -4.14334546
Cl       5.46966814       3.43662409      -5.43790707
C        2.81148090       1.79322711      -5.35460660
C        3.65846204       0.59902437      -5.86245605
N        3.43752217       0.34630549      -7.31683732
C        3.71782914       1.35969492      -8.21663241
H        4.52962015       2.02841159      -7.95006290
C        2.81878193       1.68165914      -9.28240684
C        1.57103026       0.90179335      -9.43421984
O        0.65668780       1.24007321     -10.17612562
C        1.49839119      -0.35738430      -8.64855233
C        2.46904937      -0.64206760      -7.65694447
C        2.44723110      -1.95162065      -7.12121320
Cl       3.74994245      -2.60672328      -6.17821326
C        1.42440230      -2.85734054      -7.44420690
C        0.42175356      -2.50379660      -8.34056703
C        0.47048126      -1.26222831      -8.96115181
H        2.94320193       5.62303258      -0.96118520
H        4.61036802       6.90314409      -2.25566515
H        5.66036770       5.88528952      -4.23887043
H        2.97146811       2.69707799      -5.95061543
H        1.75154875       1.55790909      -5.53401317
H        3.40508497      -0.26014311      -5.23998349
H        4.72605095       0.77434831      -5.69523197
H        1.42598920      -3.85983922      -7.02021215
H       -0.36429837      -3.21164049      -8.59296994
H       -0.27856549      -1.00631142      -9.70949073
C        3.04945000       2.86402288     -10.07133537
C        3.24263452       3.85425251     -10.73206302
Br       3.55499753       5.45537007     -11.80040374
O       -1.53949949      -0.42049505      -3.71102329
C       -1.99516417      -1.43250090      -3.18766501
C       -1.77006590      -1.77006590      -1.77006590
C       -2.49018249      -2.85616029      -1.18648405
H       -2.50285315      -2.98596689      -0.10820151
N       -3.35460838      -3.65550027      -1.91662320
C       -3.41214871      -3.53037731      -3.33968721
C       -2.79312410      -2.41458541      -3.96857508
C       -2.87334441      -2.19552764      -5.35676470
C       -3.53190390      -3.10098237      -6.17338871
C       -4.07689440      -4.24444679      -5.60827675
C       -4.00396804      -4.47146942      -4.22149621
Cl      -4.56504054      -6.03912708      -3.74003168
C       -4.54699215      -4.20117717      -1.21114529
C       -4.22295592      -5.48729060      -0.40969593
N       -5.42110708      -5.99853690       0.31897901
C       -6.54762625      -6.33593514      -0.41059508
H       -6.37540579      -6.72334457      -1.40934429
C       -7.85596918      -5.93466708       0.00778835
C       -8.00712566      -5.15675875       1.25684096
O       -9.04991136      -4.59794740       1.57497213
C       -6.81256250      -5.11672759       2.13973086
C       -5.56319930      -5.60055699       1.67983006
C       -4.54607266      -5.72631264       2.65556164
Cl      -3.08316008      -6.62136014       2.38308779
C       -4.72479364      -5.25075036       3.96427534
C       -5.93159351      -4.67869994       4.35176944
C       -6.98422942      -4.63208231       3.44690697
H       -2.40471376      -1.31906713      -5.80363883
H       -3.58608939      -2.93640584      -7.24668204
H       -4.54171845      -4.98233030      -6.26047890
H       -5.40093628      -4.33597877      -1.88224648
H       -4.90290033      -3.43960919      -0.50096148
H       -3.39245264      -5.24837900       0.25590629
H       -3.84937692      -6.27787390      -1.06838041
H       -3.92904026      -5.35667193       4.69935006
H       -6.06742761      -4.31841278       5.36880932
H       -7.94955493      -4.24104088       3.76598199
C       -8.97483862      -6.13329256      -0.87667707
C       -9.91189178      -6.29964139      -1.61741687
Br     -11.42702748      -6.56861339      -2.81513047
O       -2.69947403       3.00504348      -0.03349969
C       -2.65880347       2.78376309       1.17276352
C       -1.77006590       1.77006590       1.77006590
C       -1.63665530       1.70595489       3.19021663
H       -0.83791985       1.12150762       3.63759409
N       -2.36035787       2.52174060       4.04463338
C       -3.41499912       3.33795240       3.52926171
C       -3.53773828       3.51539050       2.12315581
C       -4.50916571       4.36117664       1.55529440
C       -5.42085201       5.02374346       2.36167951
C       -5.38643125       4.81127084       3.73191585
C       -4.41794091       3.96954543       4.30944733
Cl      -4.66325407       3.68025729       6.00068794
C       -1.70424468       2.94128870       5.31378123
C       -1.82602795       1.86850618       6.42540833
N       -1.13188960       2.29151011       7.67726526
C       -1.53585963       3.46083963       8.29745721
H       -2.58666939       3.71523230       8.20619296
C       -0.58634857       4.41662369       8.77987564
C        0.85847149       4.13890896       8.62660598
O        1.72579306       4.98330086       8.81537883
C        1.21087635       2.74346750       8.25696807
C        0.20422126       1.83031805       7.85782945
C        0.60110592       0.47709688       7.74083270
Cl      -0.53385193      -0.83153644       7.61911694
C        1.94687533       0.09621339       7.86193060
C        2.92769892       1.04014332       8.14607960
C        2.55787815       2.36057845       8.36670446
H       -4.56242385       4.49042057       0.47457529
H       -6.17683308       5.66991233       1.92243186
H       -6.14124357       5.28698131       4.35630278
H       -2.04264283       3.92615975       5.65035895
H       -0.63431096       3.09889599       5.11026406
H       -1.43120559       0.93774129       6.01597847
H       -2.87525012       1.66125019       6.65913092
H        2.23090403      -0.95030549       7.76757164
H        3.96780961       0.73880301       8.24603767
H        3.31553920       3.09014172       8.65001131
C       -1.04516031       5.70281122       9.23683672
C       -1.42941513       6.77999328       9.61954163
Br      -2.05072269       8.52170556      10.23834310
O        2.16089958      -0.09846374       3.41165451
C        2.32779867      -1.25386749       3.03366392
C        1.77006590      -1.77006590       1.77006590
C        2.16790900      -3.06004697       1.30487086
H        1.94230495      -3.36699373       0.28772288
N        3.01620916      -3.88393437       2.02658832
C        3.37797955      -3.53833238       3.36590130
C        3.09176004      -2.23243098       3.85209357
C        3.48403323      -1.80647599       5.13512753
C        4.13329351      -2.67716166       5.99581981
C        4.35622952      -3.98433954       5.58904889
C        3.96995847      -4.41921357       4.30776163
Cl       4.15475097      -6.12528317       4.06416516
C        3.93532637      -4.76711368       1.25687456
C        3.24812376      -6.07696137       0.79485733
N        4.17387466      -6.93190729      -0.00511698
C        5.35182972      -7.36245468       0.57987207
H        5.32153871      -7.53608558       1.65047036
C        6.59775532      -7.30693943      -0.12184684
C        6.62235637      -6.79362699      -1.50893992
O        7.65815951      -6.51608948      -2.10136237
C        5.29856753      -6.66200104      -2.17100934
C        4.10420275      -6.80216411      -1.42244062
C        2.90557330      -6.88161372      -2.17036336
Cl       1.39913961      -7.40710108      -1.48480826
C        2.89460860      -6.67565303      -3.55899297
C        4.07705317      -6.42975039      -4.24827956
C        5.28260902      -6.44560048      -3.55880474
H        3.26676359      -0.79204257       5.46861355
H        4.42822082      -2.35088304       6.99007341
H        4.81328876      -4.68168297       6.28955591
H        4.87202880      -4.95709276       1.79003997
H        4.26298633      -4.22115314       0.35933153
H        2.35244660      -5.79025273       0.24222602
H        2.88825425      -6.65594460       1.65143237
H        1.96127912      -6.74038806      -4.11530505
H        4.06404014      -6.27804535      -5.32505442
H        6.21557255      -6.31466449      -4.10562321
C        7.82243925      -7.57624379       0.58612521
C        8.84811204      -7.80178619       1.17905181
Br      10.50653820      -8.16646918       2.13776397
C       -0.00445707       0.01189536      -1.78238275
H       -0.66409135       0.67374010      -2.43557963
H        0.65740317      -0.63156657      -2.45157240
C       -0.90989263      -0.90692880      -0.91072765
C        0.90977584       0.90977584      -0.90977584
C       -0.00465871       1.77757030       0.00794375
H       -0.66225468       2.44313916      -0.64384735
H        0.64322798       2.43503045       0.67728295
C       -1.78241447       0.00034974      -0.00472694
H       -2.45427497      -0.65498947       0.64260836
H       -2.43311707       0.67328779      -0.65473579
C       -0.91132561       0.90220522       0.91563759
C       -0.01476271      -0.02253852       1.78660255
H       -0.67934791      -0.69751639       2.42135241
H        0.63392994       0.61504881       2.47327442
C        0.01484550      -1.77751727      -0.01636693
H        0.67870853      -2.42144646      -0.68295456
H       -0.62264859      -2.45592969       0.64226336
C        1.78714474       0.01002794       0.00389507
H        2.44202412       0.67113390       0.66197326
H        2.45385902      -0.65136977      -0.64189061
C        0.91606151      -0.90478549       0.90901405
