194
Properties=species:S:1:pos:R:3 pbc="F F F"
O       -0.03195473       2.95467607      -2.75145438
C        1.17633096       2.75630109      -2.68693895
C        1.76979326       1.76979326      -1.76979326
C        3.18710604       1.70858007      -1.63850391
H        3.64492375       1.07483603      -0.88465738
N        4.04212286       2.52056679      -2.36545025
C        3.54199074       3.33463096      -3.42532710
C        2.12916074       3.49199866      -3.56089659
C        1.54871077       4.32678198      -4.53642449
C        2.34480602       5.01060916      -5.43797617
C        3.71897779       4.83488229      -5.38430795
C        4.31411478       4.00315992      -4.41319355
Cl       6.02317962       3.81703500      -4.64745406
C        5.42310790       2.68658171      -1.85976641
C        6.28679310       1.62567892      -2.32199316
C        6.99864932       0.75126614      -2.70296778
C        7.81688495      -0.25380534      -3.14087488
C        8.52874117      -1.12821812      -3.52184950
C        9.39243058      -2.18912838      -3.98408138
N        9.21808318      -3.43567629      -3.18489543
C       10.28436032      -3.87381993      -2.41969359
H       11.27186242      -3.54153823      -2.72334155
C       10.10316998      -4.59080541      -1.19888292
Br      11.58391527      -5.10539020      -0.21155665
C        8.73846924      -4.80020565      -0.68108453
O        8.51434076      -5.23774211       0.44192333
C        7.63194140      -4.48033290      -1.62023790
C        7.89161828      -3.88339742      -2.88357839
C        6.77544825      -3.78650336      -3.75372827
Cl       6.88979272      -3.37420009      -5.43502170
C        5.47767942      -4.12537142      -3.32943970
C        5.25042527      -4.61533984      -2.05032185
C        6.33039538      -4.81679831      -1.20439716
H        0.46594534       4.43227828      -4.59716373
H        1.89733666       5.64873185      -6.19555824
H        4.33718878       5.33741101      -6.12711274
H        5.39503353       2.65038209      -0.76081949
H        5.82029100       3.68656206      -2.05641512
H       10.43140281      -1.84184501      -3.89992152
H        9.27367387      -2.39996573      -5.04977916
H        4.63472777      -4.02336198      -4.01091825
H        4.24461585      -4.87414399      -1.72936487
H        6.16182258      -5.24546435      -0.21710809
O       -1.61968320      -3.67933653      -0.37515598
C       -2.03865639      -3.17138918      -1.40952543
C       -1.76979326      -1.76979326      -1.76979326
C       -2.42054021      -1.20785095      -2.90579886
H       -2.33287805      -0.14755649      -3.12398262
N       -3.27808454      -1.93621724      -3.71383813
C       -3.40440089      -3.34802978      -3.54951814
C       -2.83445802      -3.95712917      -2.39046879
C       -2.96571431      -5.33249018      -2.11371275
C       -3.63685829      -6.16384484      -2.99268822
C       -4.14895329      -5.62586610      -4.16334864
C       -4.02578667      -4.25121222      -4.45346936
Cl      -4.59958458      -3.84768530      -6.04039880
C       -4.21291582      -1.17988639      -4.57665380
C       -3.59569042      -0.81014477      -5.82862999
C       -3.08696037      -0.50539997      -6.86052290
C       -2.50221690      -0.15512023      -8.04661735
C       -1.99348685       0.14962457      -9.07851027
C       -1.37625567       0.51936667     -10.33049459
N       -0.49693331       1.71460413     -10.18497314
C       -0.85975097       2.87500607     -10.84548908
H       -1.50681892       2.76261236     -11.70945919
C       -0.54393434       4.17144914     -10.33876229
Br      -1.10333201       5.67638401     -11.26313372
C        0.11311178       4.29169061      -9.02415052
O        0.24579161       5.36332306      -8.44379000
C        0.64518206       3.02980977      -8.44683823
C        0.40527950       1.77757840      -9.07465716
C        1.10670092       0.67442477      -8.52379886
Cl       1.21338112      -0.88269807      -9.28129739
C        1.86815100       0.79741208      -7.34731078
C        1.99919487       2.02247946      -6.70708161
C        1.40892660       3.14351626      -7.27043709
H       -2.52926841      -5.75632859      -1.20979036
H       -3.73188149      -7.22619660      -2.78354868
H       -4.63364612      -6.29366103      -4.87440538
H       -4.49852965      -0.25716797      -4.05053748
H       -5.17156694      -1.69196510      -4.69973614
H       -2.17590543       0.73797674     -11.05155063
H       -0.82646241      -0.30417687     -10.79284802
H        2.38117018      -0.06942093      -6.93403329
H        2.58851408       2.10945427      -5.79780508
H        1.54887566       4.11472466      -6.79706664
O        0.03552837       2.85257479       2.85712929
C       -1.17583609       2.70094175       2.74279316
C       -1.76979326       1.76979326       1.76979326
C       -3.18263035       1.76514924       1.58641043
H       -3.63464237       1.17558190       0.79419289
N       -4.03448010       2.58171180       2.31194800
C       -3.54504099       3.33901669       3.41789113
C       -2.13344373       3.43970384       3.60890841
C       -1.55997322       4.21773950       4.63420452
C       -2.36388934       4.89798980       5.53151221
C       -3.74052290       4.77466213       5.42298301
C       -4.32871489       4.00006504       4.40168832
Cl      -6.05071014       3.86844337       4.56851517
C       -5.38931825       2.81588705       1.76425072
C       -6.30624271       1.77164215       2.15658033
C       -7.06197957       0.91095880       2.47994487
C       -7.93065288      -0.07833154       2.85163315
C       -8.68638974      -0.93901488       3.17499769
C       -9.60331886      -1.98326728       3.56733200
N       -9.44395301      -3.20637533       2.72972464
C      -10.49631860      -3.57793228       1.91184766
H      -11.48192585      -3.22066697       2.19240686
C      -10.29600167      -4.25753191       0.67277774
Br     -11.75687043      -4.68242693      -0.38436178
C       -8.92151118      -4.49831712       0.19615406
O       -8.67202695      -4.90385199      -0.93349963
C       -7.83948575      -4.25249038       1.18485103
C       -8.12398094      -3.69141496       2.45923327
C       -7.03767107      -3.66619592       3.37119801
Cl      -7.19883023      -3.30958285       5.06136696
C       -5.73801678      -4.03713305       2.98086397
C       -5.48154978      -4.48963660       1.69349409
C       -6.53628344      -4.62146433       0.80317512
H       -0.47710668       4.28133974       4.73694094
H       -1.92219442       5.49217691       6.32725543
H       -4.36737545       5.27294293       6.16139415
H       -5.32234990       2.81749403       0.66639117
H       -5.75788873       3.82216577       1.98321368
H      -10.62561121      -1.59544896       3.45931707
H       -9.53114856      -2.23579049       4.62812923
H       -4.91748843      -3.99014972       3.69494535
H       -4.47443223      -4.77357828       1.39898278
H       -6.34693561      -5.02089775      -0.19257155
O        2.17874576      -3.39781870       0.09761125
C        2.33772865      -3.02650826       1.25533409
C        1.76979326      -1.76979326       1.76979326
C        2.12892095      -1.32911189       3.07615718
H        1.82001221      -0.35108998       3.43331498
N        2.97075361      -2.05220344       3.90518285
C        3.37225180      -3.37569884       3.55399817
C        3.10363408      -3.84581298       2.23260892
C        3.52043823      -5.11291791       1.77856110
C        4.18885318      -5.97713844       2.62739973
C        4.41226988      -5.58701260       3.93888555
C        4.00142800      -4.32177023       4.40727002
Cl       4.24583503      -4.12779428       6.11403937
C        3.61249475      -1.33037957       5.02658169
C        2.75618639      -1.28971483       6.18856396
C        2.05040171      -1.25619979       7.14628175
C        1.23915723      -1.21767970       8.24711756
C        0.53337255      -1.18416466       9.20483535
C       -0.32294276      -1.14350178      10.36682456
N       -1.37037960      -0.08904205      10.24863987
C       -1.32654999       0.97510287      11.13188684
H       -0.80850467       0.80871462      12.07088504
C       -1.78968853       2.27834952      10.77928553
Br      -1.65675948       3.65975012      12.00659133
C       -2.25047696       2.53186214       9.40168722
O       -2.48403302       3.65762644       8.97633478
C       -2.45319012       1.32845155       8.55348806
C       -2.09015398       0.03489089       9.01684412
C       -2.49001360      -1.04469373       8.18799303
Cl      -2.42869924      -2.71048222       8.66883135
C       -3.07372453      -0.82918132       6.92629091
C       -3.32419056       0.45672322       6.46632106
C       -3.03747592       1.53457984       7.29004999
H        3.30956305      -5.42858031       0.75724400
H        4.50391417      -6.95766904       2.28004355
H        4.89553728      -6.29036260       4.61581264
H        3.80403586      -0.29564379       4.70655545
H        4.61762909      -1.70478098       5.24085811
H        0.30558057      -0.93933492      11.24456384
H       -0.77940564      -2.11046106      10.59243188
H       -3.35382314      -1.67522677       6.30088042
H       -3.77466471       0.61531135       5.48981279
H       -3.27627552       2.54240182       6.95214366
C       -0.00445707       0.01189536      -1.78238275
H       -0.66409135       0.67374010      -2.43557963
H        0.65740317      -0.63156657      -2.45157240
C       -0.90989263      -0.90692880      -0.91072765
C        0.90977584       0.90977584      -0.90977584
C       -0.00465871       1.77757030       0.00794375
H       -0.66225468       2.44313916      -0.64384735
H        0.64322798       2.43503045       0.67728295
C       -1.78241447       0.00034974      -0.00472694
H       -2.45427497      -0.65498947       0.64260836
H       -2.43311707       0.67328779      -0.65473579
C       -0.91132561       0.90220522       0.91563759
C       -0.01476271      -0.02253852       1.78660255
H       -0.67934791      -0.69751639       2.42135241
H        0.63392994       0.61504881       2.47327442
C        0.01484550      -1.77751727      -0.01636693
H        0.67870853      -2.42144646      -0.68295456
H       -0.62264859      -2.45592969       0.64226336
C        1.78714474       0.01002794       0.00389507
H        2.44202412       0.67113390       0.66197326
H        2.45385902      -0.65136977      -0.64189061
C        0.91606151      -0.90478549       0.90901405
