186
Properties=species:S:1:pos:R:3 pbc="F F F"
O        3.74135173       1.45492142      -0.48368678
C        3.18928278       1.99288395      -1.43751073
C        1.76972232       1.76972232      -1.76972232
C        1.21820495       2.37336155      -2.93965513
H        0.19261843       2.17304615      -3.23168505
N        1.95631727       3.19522501      -3.77021669
C        3.30160736       3.51804359      -3.44906531
C        3.92867847       2.92949598      -2.32332018
C        5.26895348       3.20567017      -1.98980031
C        6.01702110       4.09264961      -2.75386591
C        5.42530417       4.70660517      -3.84807778
C        4.09803576       4.42254323      -4.18258144
F        3.61261259       5.06514927      -5.25544359
C        1.36809159       3.64064951      -5.06022572
C        1.89505393       2.85273097      -6.28465402
N        1.73621974       1.37936613      -6.15885256
C        2.83709405       0.60513577      -5.84496711
H        3.79895671       1.10626903      -5.81730723
C        2.73207621      -0.78261016      -5.52465692
C        1.40161503      -1.41773889      -5.47061232
O        1.23580361      -2.58475336      -5.13385142
C        0.25191625      -0.56264805      -5.86846481
C        0.44401978       0.79433802      -6.22523283
C       -0.71733146       1.48055074      -6.64160727
F       -0.66072609       2.75855632      -7.04553897
C       -1.98104777       0.88636559      -6.66048323
C       -2.13994622      -0.43417427      -6.26785889
C       -1.02072469      -1.16211433      -5.87610115
H        5.72786661       2.72830660      -1.12449718
H        7.04985549       4.30731931      -2.49144418
H        5.98603660       5.41384944      -4.45297597
H        1.50329250       4.71796966      -5.20227312
H        0.27854285       3.52876707      -5.00355294
H        2.95930596       3.07985687      -6.42185617
H        1.43435695       3.21603361      -7.20936500
H       -2.83854245       1.46997472      -6.98621622
H       -3.12131321      -0.90025911      -6.27509432
H       -1.13937876      -2.20325472      -5.58017937
C        3.92476537      -1.53790393      -5.24071345
C        4.92364253      -2.17046246      -5.00291079
Br       6.53874243      -3.19325611      -4.61840401
O       -0.01070393      -2.46172343      -3.20753257
C       -1.20387952      -2.49019666      -2.92560130
C       -1.76972232      -1.76972232      -1.76972232
C       -3.15639619      -1.91200162      -1.46282382
H       -3.57747409      -1.43699177      -0.58288377
N       -4.01218260      -2.68017088      -2.22940548
C       -3.54113327      -3.32206565      -3.40551735
C       -2.17003944      -3.25577283      -3.75568235
C       -1.66273865      -3.90186102      -4.89982428
C       -2.50900856      -4.61385853      -5.74066954
C       -3.86200537      -4.67695857      -5.44102317
C       -4.36075161      -4.04328618      -4.29912264
F       -5.68133898      -4.15857870      -4.09328778
C       -5.39683523      -2.92413489      -1.74799670
C       -5.59365387      -4.32360956      -1.11517551
N       -4.63574487      -4.62148766      -0.01720590
C       -3.56456409      -5.45925329      -0.26337955
H       -3.53949164      -5.95487889      -1.22816243
C       -2.50502776      -5.64504088       0.67594567
C       -2.51084770      -4.88248313       1.93884237
O       -1.59795606      -4.94183361       2.75488800
C       -3.70810060      -4.03595216       2.18631975
C       -4.74524802      -3.94466722       1.22632460
C       -5.85379055      -3.15751527       1.60647926
F       -6.91977434      -3.02626177       0.80266691
C       -5.91457411      -2.47412464       2.82289770
C       -4.86389586      -2.55433324       3.72449070
C       -3.76060439      -3.34098000       3.40832226
H       -0.60087979      -3.84289044      -5.13690016
H       -2.11541287      -5.10774807      -6.62545804
H       -4.54558383      -5.21672224      -6.09055593
H       -6.12628063      -2.75110634      -2.54614831
H       -5.64824000      -2.15647160      -1.00615126
H       -5.47960019      -5.08556429      -1.89585452
H       -6.62669280      -4.45632286      -0.77673990
H       -6.79413147      -1.87885067       3.05533365
H       -4.90294368      -2.02053183       4.66995351
H       -2.93965575      -3.41742368       4.11953354
C       -1.43637975      -6.56008698       0.36889184
C       -0.54138703      -7.32643809       0.11173425
Br       0.90574049      -8.56556301      -0.30406781
O       -0.06699409       3.35021126       2.26275459
C       -1.22222365       2.97209819       2.42535563
C       -1.76972232       1.76972232       1.76972232
C       -3.14576671       1.43588127       1.94957364
H       -3.57992662       0.58910021       1.42832281
N       -3.99315975       2.18118824       2.74741098
C       -3.49789850       3.29593015       3.47488761
C       -2.15182675       3.70951864       3.32014923
C       -1.63357871       4.82591256       4.00493268
C       -2.43357449       5.54946677       4.88049536
C       -3.74937601       5.15554144       5.07506967
C       -4.26376449       4.05328933       4.38610661
F       -5.54505906       3.74785897       4.64028743
C       -5.44788825       1.87740083       2.74367774
C       -6.28268835       2.86167165       1.88807893
N       -5.80611752       2.98375021       0.48457070
C       -5.07717144       4.09738637       0.11263912
H       -4.98497902       4.89204020       0.84551374
C       -4.42901981       4.20079821      -1.15569505
C       -4.48502665       3.06511027      -2.09564846
O       -3.89254654       3.06121196      -3.16885683
C       -5.32460714       1.91104042      -1.67791455
C       -5.98089732       1.90567646      -0.42298315
C       -6.79551567       0.78051201      -0.17120113
F       -7.50331057       0.67642274       0.96363588
C       -6.91723576      -0.28145057      -1.06998414
C       -6.22997871      -0.26187963      -2.27436068
C       -5.43618957       0.83878456      -2.58171199
H       -0.59707267       5.12725027       3.85634745
H       -2.02960403       6.40795832       5.41105663
H       -4.39057779       5.69766202       5.76462220
H       -5.83955003       1.81937207       3.76461319
H       -5.59040014       0.85954454       2.36091817
H       -6.25182717       3.85321873       2.35597311
H       -7.34523665       2.59803346       1.91648546
H       -7.55636547      -1.12329865      -0.81541833
H       -6.31627725      -1.08757601      -2.97517923
H       -4.90580658       0.86407022      -3.53233090
C       -3.71428566       5.40491772      -1.49162849
C       -3.11569580       6.41336782      -1.77297275
Br      -2.14782664       8.04394633      -2.22788263
O        3.79993894      -1.20617456       0.67384644
C        3.22345550      -1.85892305       1.53729893
C        1.76972232      -1.76972232       1.76972232
C        1.18296873      -2.50512783       2.84312507
H        0.12566480      -2.40602385       3.06566100
N        1.92093889      -3.33393643       3.66688364
C        3.30805855      -3.52862028       3.43203743
C        3.96783109      -2.80614380       2.40751974
C        5.34712853      -2.95384226       2.16345316
C        6.10519981      -3.84127133       2.91706548
C        5.48496657      -4.58382471       3.91119583
C        4.11788798      -4.42739578       4.15787666
F        3.60720685      -5.18878092       5.13721769
C        1.27599443      -3.92449875       4.86847364
C        1.64497695      -3.20074586       6.18671612
N        1.37772795      -1.73799077       6.15871971
C        2.43294489      -0.86106619       5.99318585
H        3.43144624      -1.28522871       6.00585801
C        2.24058940       0.53627742       5.76981098
C        0.87100932       1.07272991       5.65620904
O        0.63724538       2.24747001       5.39512629
C       -0.23247966       0.10502580       5.89523848
C        0.04123764      -1.25818978       6.16416322
C       -1.08882595      -2.06039838       6.43325412
F       -0.95966980      -3.35901444       6.74402456
C       -2.39420120      -1.56554323       6.39445901
C       -2.62930331      -0.23318787       6.08985384
C       -1.54631327       0.60537070       5.84494610
H        5.82930401      -2.37540644       1.37595994
H        7.16865733      -3.95648891       2.72347274
H        6.05421518      -5.29374301       4.50490382
H        1.48662036      -4.99667493       4.94024000
H        0.18824024      -3.88995610       4.73266651
H        2.71087220      -3.35821194       6.39193486
H        1.14740588      -3.67073163       7.04161806
H       -3.22375741      -2.23580879       6.60559712
H       -3.64284341       0.15633020       6.05269561
H       -1.72610418       1.65522188       5.61887195
C        3.38636008       1.39881180       5.64002660
C        4.34594303       2.12118434       5.53133218
Br       5.89750750       3.28919965       5.35558249
C       -0.00445707       0.01189536      -1.78238275
H       -0.66409135       0.67374010      -2.43557963
H        0.65740317      -0.63156657      -2.45157240
C       -0.90989263      -0.90692880      -0.91072765
C        0.90977584       0.90977584      -0.90977584
C       -0.00465871       1.77757030       0.00794375
H       -0.66225468       2.44313916      -0.64384735
H        0.64322798       2.43503045       0.67728295
C       -1.78241447       0.00034974      -0.00472694
H       -2.45427497      -0.65498947       0.64260836
H       -2.43311707       0.67328779      -0.65473579
C       -0.91132561       0.90220522       0.91563759
C       -0.01476271      -0.02253852       1.78660255
H       -0.67934791      -0.69751639       2.42135241
H        0.63392994       0.61504881       2.47327442
C        0.01484550      -1.77751727      -0.01636693
H        0.67870853      -2.42144646      -0.68295456
H       -0.62264859      -2.45592969       0.64226336
C        1.78714474       0.01002794       0.00389507
H        2.44202412       0.67113390       0.66197326
H        2.45385902      -0.65136977      -0.64189061
C        0.91606151      -0.90478549       0.90901405
