181
Properties=species:S:1:pos:R:3 pbc="F F F"
C        0.00000000       0.00000000       0.00000000
O        0.67123102       2.78524575       0.51704598
C        1.14524614       2.25793199      -0.48381776
C        0.86061412       0.86061412      -0.86061412
C        1.41223731       0.32744440      -2.06430005
H        1.22848831      -0.70295650      -2.35093381
N        2.20302619       1.07755878      -2.91525205
C        2.57070307       2.40744496      -2.56745084
C        2.05595058       3.00671698      -1.38832030
C        2.38608998       4.32453367      -1.01671425
C        3.24123170       5.08625379      -1.80282885
C        3.76962634       4.52881434      -2.95789916
C        3.44120802       3.21953000      -3.32645511
F        4.01248332       2.76980392      -4.45358861
C        2.74151838       0.45686335      -4.14531307
C        4.02886946      -0.15182932      -3.90585360
C        5.08991606      -0.65352556      -3.70847962
C        6.30952387      -1.23017769      -3.48161513
C        7.37057610      -1.73186680      -3.28424531
C        8.65792718      -2.34055947      -3.04478584
N        9.73825863      -1.58538161      -3.71610798
C       10.36880163      -0.55862110      -3.03720362
H       10.06811515      -0.39729488      -2.00689663
C       11.34746043       0.27988673      -3.65049917
C       11.69000462       0.08187870      -5.07107309
O       12.50996875       0.77912043      -5.65869371
C       10.98047497      -1.02305617      -5.76765620
C       10.02461198      -1.82169736      -5.08977476
C        9.42143607      -2.83253339      -5.86909029
F        8.49698799      -3.65638130      -5.35519173
C        9.74406597      -3.04625515      -7.21393327
C       10.68446589      -2.24627624      -7.84557469
C       11.30088712      -1.23213215      -7.12387476
H        1.97383048       4.75665269      -0.10537714
H        3.49553991       6.10240558      -1.51296140
H        4.44535764       5.10229157      -3.58662709
H        2.74574205       1.15323267      -4.98899304
H        2.04556481      -0.32788710      -4.47414631
H        8.68384321      -3.40644699      -3.28589404
H        8.84504693      -2.32994214      -1.96150599
H        9.24863450      -3.84678531      -7.75659202
H       10.93589420      -2.40813435      -8.89054794
H       12.03724149      -0.59887622      -7.61745323
C       11.98020128       1.31607686      -2.87619366
C       12.51012175       2.18388609      -2.22771280
Br      13.36695832       3.58706023      -1.17917408
O       -2.14723628       0.93639511      -1.72858963
C       -1.90928646      -0.26674560      -1.71096382
C       -0.86061412      -0.86061412      -0.86061412
C       -0.66992332      -2.27519952      -0.85885891
H        0.10692539      -2.73033935      -0.25305165
N       -1.44561641      -3.13044040      -1.61978022
C       -2.42282772      -2.60946383      -2.51330732
C       -2.67226656      -1.21321823      -2.56550307
C       -3.63972552      -0.66054277      -3.42706960
C       -4.38629333      -1.47750440      -4.26651661
C       -4.16238398      -2.84631245      -4.24764341
C       -3.20106556      -3.39468220      -3.39144538
F       -3.05304309      -4.72617600      -3.45665675
C       -1.18902807      -4.58639244      -1.56827430
C       -0.22792028      -4.98574456      -2.56922890
C        0.56424243      -5.31488748      -3.39422506
C        1.47476790      -5.69321700      -4.34251221
C        2.26692415      -6.02236384      -5.16751492
C        3.22803194      -6.42171597      -6.16846952
N        2.58578027      -7.21750134      -7.23726394
C        2.06618319      -6.57011791      -8.34344942
H        2.21189164      -5.49577999      -8.39382854
C        1.34378116      -7.25621881      -9.36540868
C        1.10253584      -8.70557283      -9.23991942
O        0.47572434      -9.34807021     -10.07543701
C        1.66591381      -9.36063266      -8.03035615
C        2.38134371      -8.61444157      -7.05959152
C        2.85780563      -9.35775628      -5.95804232
F        3.54542440      -8.77657194      -4.96465088
C        2.65260673     -10.73596268      -5.82838813
C        1.94851813     -11.43474271      -6.79753976
C        1.45191652     -10.74708484      -7.89746141
H       -3.80828867       0.41581236      -3.44338400
H       -5.13116812      -1.04826165      -4.93147712
H       -4.72945866      -3.50591090      -4.89890673
H       -2.11465611      -5.16829141      -1.60502024
H       -0.77876621      -4.83405755      -0.57900025
H        4.10654037      -6.91978099      -5.75004964
H        3.65261886      -5.51222863      -6.61700100
H        3.05198610     -11.25133198      -4.95909533
H        1.78548023     -12.50482864      -6.69895938
H        0.89480000     -11.29158673      -8.65903177
C        0.85029599      -6.52147735     -10.50129044
C        0.43700216      -5.90613138     -11.45259142
Br      -0.23125901      -4.91116898     -12.99076464
O        0.90486343       1.55649383       2.28780040
C       -0.28222826       1.61922047       1.98554715
C       -0.86061412       0.86061412       0.86061412
C       -2.26032822       0.94853554       0.59511800
H       -2.70266910       0.41147354      -0.23767703
N       -3.11611650       1.71397309       1.36574743
C       -2.60408882       2.52352791       2.41798214
C       -1.22327787       2.48380034       2.74390965
C       -0.68079899       3.26022747       3.78631143
C       -1.49260671       4.10335310       4.53435452
C       -2.84572433       4.17340220       4.23721331
C       -3.38396993       3.40175863       3.20146457
F       -4.69967673       3.54950389       2.98669522
C       -4.55601610       1.75812540       1.02955331
C       -4.84687248       2.82967330       0.10634797
C       -5.08659171       3.71285319      -0.65457479
C       -5.36213491       4.72801804      -1.52919165
C       -5.60185808       5.61120434      -2.29010781
C       -5.89271445       6.68275223      -3.21331314
N       -6.66534014       7.75889793      -2.55525307
C       -5.99024242       8.79771930      -1.94057758
H       -4.90825595       8.79530543      -2.02584448
C       -6.66051094       9.81673897      -1.19940358
C       -8.12575607       9.76026620      -1.04306586
O       -8.75709985      10.59603935      -0.40535631
C       -8.81154731       8.62113862      -1.70761094
C       -8.07903647       7.64941087      -2.43575796
C       -8.85195582       6.61830932      -3.01227218
F       -8.28672417       5.63181881      -3.72274456
C      -10.24446205       6.55560269      -2.88832065
C      -10.92915236       7.52366052      -2.16904854
C      -10.21294164       8.55519650      -1.57550841
H        0.38371848       3.20701335       4.01256545
H       -1.07113982       4.70254823       5.33721885
H       -3.50056496       4.82961429       4.80409705
H       -5.18624940       1.77821520       1.92350316
H       -4.83251983       0.80757533       0.55172885
H       -6.36216470       6.34033840      -4.13921284
H       -4.93821810       7.10140422      -3.56301155
H      -10.78209351       5.73914421      -3.36279651
H      -12.01043888       7.47685654      -2.06898763
H      -10.74660113       9.31544420      -1.00622684
C       -5.89526907      10.88164610      -0.60444337
C       -5.25437899      11.77350583      -0.10616418
Br      -4.21811395      13.21556757       0.69951111
O       -0.47999637      -0.61453233       2.80489483
C        0.50332903      -1.11477866       2.26888819
C        0.86061412      -0.86061412       0.86061412
C        2.04527575      -1.44206627       0.31663974
H        2.31707297      -1.28092904      -0.72153640
N        2.89550385      -2.23459356       1.06573962
C        2.56461777      -2.57343227       2.40754882
C        1.40502262      -2.02813826       3.01782698
C        1.05076974      -2.32924332       4.34732483
C        1.83528307      -3.18478083       5.11025044
C        2.97131853      -3.74258150       4.54243981
C        3.32264097      -3.44299847       3.22155370
F        4.43188603      -4.04134423       2.76264558
C        4.10523744      -2.80486989       0.43358748
C        3.83331660      -4.09806878      -0.14849164
C        3.60918755      -5.16393514      -0.62825258
C        3.35157005      -6.38908277      -1.17969151
C        3.12744519      -7.45495471      -1.65944529
C        2.85552435      -8.74815360      -2.24152441
N        3.52132328      -9.82693305      -1.47927133
C        2.84968489     -10.42798452      -0.43028527
H        1.82761425     -10.10674916      -0.25664651
C        3.46065580     -11.40269230       0.41449823
C        4.87152677     -11.77317357       0.19825607
O        5.45708588     -12.59119841       0.89949860
C        5.56082936     -11.09479961      -0.93055398
C        4.88559481     -10.14107950      -1.73398493
C        5.65742409      -9.56885834      -2.76828946
F        5.14515022      -8.64982054      -3.59917234
C        6.99265358      -9.91838472      -2.99929421
C        7.62194889     -10.85582084      -2.19400538
C        6.90754956     -11.44222710      -1.15714693
H        0.15423822      -1.89391271       4.78770938
H        1.55880183      -3.41664336       6.13546171
H        3.59828535      -4.41924160       5.11674935
H        4.96068376      -2.81185582       1.11542818
H        4.43222560      -2.12822089      -0.36862249
H        3.07761599      -8.79643451      -3.31076024
H        1.76955697      -8.91623191      -2.20917811
H        7.52970850      -9.44617949      -3.81744678
H        8.65951271     -11.12807629      -2.36928121
H        7.39941026     -12.17612623      -0.51971800
C        2.69377072     -12.00412399       1.47457709
C        2.05150446     -12.50782303       2.36239314
Br       1.01301425     -13.32226178       3.79791660
