102
Properties=species:S:1:pos:R:3 pbc="F F F"
C        1.79168445       1.79168445      -1.79168445
C        1.43511775       3.11196847      -2.02125889
C        2.24979244       3.90681631      -2.82721502
C        3.43324117       3.39303704      -3.41025040
C        3.76511477       2.03504909      -3.17685945
N        4.84172442       1.44370191      -3.71575257
C        5.62015483       2.17683480      -4.54063978
C        5.39286914       3.50803090      -4.83566879
C        4.31371970       4.16004881      -4.22287194
N        4.00180664       5.49875047      -4.57226872
C        2.94467525       1.26340271      -2.36794089
H        0.53097330       3.53092717      -1.58672172
H        1.94174839       4.93292745      -3.00796583
H        6.45852512       1.63560481      -4.97064280
H        4.80034064       5.99140474      -4.96900524
H        3.57434986       6.02919638      -3.82044991
H        3.21375434       0.22400909      -2.19477973
C        6.29151840       4.19028007      -5.73041209
C        7.04413716       4.76166375      -6.47975960
Br       8.26105804       5.68554284      -7.69139115
C       -1.79168445      -1.79168445      -1.79168445
C       -1.26999675      -2.94938977      -2.34895859
C       -2.08625120      -3.74646625      -3.15110633
C       -3.43533768      -3.39846611      -3.40272482
C       -3.93891154      -2.19996281      -2.83814896
N       -5.18920950      -1.76256891      -3.04940049
C       -5.98508077      -2.48942254      -3.86312610
C       -5.59965159      -3.67336244      -4.46355480
C       -4.32111402      -4.18130913      -4.19421731
N       -3.86423848      -5.34552748      -4.86305988
C       -3.11251398      -1.42453385      -2.03897102
H       -0.23704847      -3.23884787      -2.17272586
H       -1.65150836      -4.63938000      -3.59175331
H       -6.97469498      -2.06929656      -4.02078120
H       -4.63144481      -5.91835416      -5.21095166
H       -3.20508997      -5.89602792      -4.32287825
H       -3.51359341      -0.50941015      -1.60953959
C       -6.53455873      -4.36430337      -5.31334847
C       -7.31754346      -4.94296639      -6.02505067
Br      -8.58356354      -5.87861556      -7.17581293
C       -1.79168445       1.79168445       1.79168445
C       -3.04093337       1.33896732       2.18844443
C       -3.83561568       2.15341796       2.99479012
C       -3.38971475       3.42874425       3.41806961
C       -2.11760896       3.87686468       2.98254967
N       -1.62240060       5.08360421       3.29517410
C       -2.39247756       5.91204070       4.03311116
C       -3.64502916       5.57830480       4.51323488
C       -4.14567963       4.29427012       4.25669070
N       -5.46188062       3.95190100       4.65904421
C       -1.34078354       3.04941502       2.18582029
H       -3.40784495       0.36437386       1.87640339
H       -4.81782820       1.78595440       3.27885905
H       -1.95122685       6.88573916       4.22780674
H       -5.80168668       4.54354546       5.41551849
H       -5.58109019       2.96781029       4.87509567
H       -0.36532983       3.40504074       1.86217258
C       -4.37678200       6.54396036       5.29146820
C       -4.98962501       7.35269689       5.94323862
Br      -5.98054032       8.66035546       6.99709625
C        1.79168445      -1.79168445       1.79168445
C        3.07722883      -1.38078801       2.11032828
C        3.87157230      -2.19467390       2.91757758
C        3.38929588      -3.42739034       3.41984239
C        2.07932904      -3.83436472       3.06332956
N        1.54572922      -5.00128617       3.45416351
C        2.31167997      -5.83104081       4.19490863
C        3.59909873      -5.53529121       4.60217889
C        4.14422865      -4.28897836       4.26343344
N        5.49189798      -3.99108994       4.58983792
C        1.30383925      -3.00791446       2.26426514
H        3.47241953      -0.43947249       1.73673018
H        4.88152926      -1.86136613       3.13974627
H        1.83683724      -6.77323495       4.45470055
H        5.83997495      -4.56351775       5.35725793
H        5.66513156      -3.00498448       4.75388010
H        0.29929930      -3.33150161       2.00174224
C        4.32254481      -6.49836883       5.39129693
C        4.92843090      -7.30494633       6.05218329
Br       5.90809747      -8.60911393       7.12078063
C       -0.00445707       0.01189536      -1.78238275
H       -0.66409135       0.67374010      -2.43557963
H        0.65740317      -0.63156657      -2.45157240
C       -0.90989263      -0.90692880      -0.91072765
C        0.90977584       0.90977584      -0.90977584
C       -0.00465871       1.77757030       0.00794375
H       -0.66225468       2.44313916      -0.64384735
H        0.64322798       2.43503045       0.67728295
C       -1.78241447       0.00034974      -0.00472694
H       -2.45427497      -0.65498947       0.64260836
H       -2.43311707       0.67328779      -0.65473579
C       -0.91132561       0.90220522       0.91563759
C       -0.01476271      -0.02253852       1.78660255
H       -0.67934791      -0.69751639       2.42135241
H        0.63392994       0.61504881       2.47327442
C        0.01484550      -1.77751727      -0.01636693
H        0.67870853      -2.42144646      -0.68295456
H       -0.62264859      -2.45592969       0.64226336
C        1.78714474       0.01002794       0.00389507
H        2.44202412       0.67113390       0.66197326
H        2.45385902      -0.65136977      -0.64189061
C        0.91606151      -0.90478549       0.90901405
