94
Properties=species:S:1:pos:R:3 pbc="F F F"
C        1.79168445       1.79168445      -1.79168445
C        1.43511775       3.11196847      -2.02125889
C        2.24979244       3.90681631      -2.82721502
C        3.43324117       3.39303704      -3.41025040
C        3.76511477       2.03504909      -3.17685945
N        4.84172442       1.44370191      -3.71575257
C        5.62015483       2.17683480      -4.54063978
C        5.39286914       3.50803090      -4.83566879
Br       6.57551792       4.40589081      -6.01317720
C        4.31371970       4.16004881      -4.22287194
N        4.00180664       5.49875047      -4.57226872
C        2.94467525       1.26340271      -2.36794089
H        0.53097330       3.53092717      -1.58672172
H        1.94174839       4.93292745      -3.00796583
H        6.45852512       1.63560481      -4.97064280
H        4.80034064       5.99140474      -4.96900524
H        3.57434986       6.02919638      -3.82044991
H        3.21375434       0.22400909      -2.19477973
C       -1.79168445      -1.79168445      -1.79168445
C       -1.28894896      -2.98028355      -2.29911261
C       -2.10503896      -3.77695368      -3.10183113
C       -3.43518144      -3.39752017      -3.40382700
C       -3.91880788      -2.16846722      -2.88974822
N       -5.14874242      -1.70138400      -3.15105249
C       -5.94202370      -2.42883347      -3.96677224
C       -5.57495785      -3.64097082      -4.52064017
Br      -6.79895485      -4.54719037      -5.64844072
C       -4.32061593      -4.17762526      -4.19839926
N       -3.87958249      -5.37419074      -4.81905261
C       -3.09314643      -1.39381011      -2.08906231
H       -0.27071726      -3.29428155      -2.08362339
H       -1.68462641      -4.69496284      -3.50305242
H       -6.91358098      -1.98498647      -4.16620529
H       -4.65316885      -5.93461064      -5.17297114
H       -3.25325133      -5.92720199      -4.24354283
H       -3.47893226      -0.45492706      -1.69868383
C       -1.79168445       1.79168445       1.79168445
C       -3.02539119       1.32418224       2.21877168
C       -3.82022292       2.13883629       3.02476457
C       -3.38991566       3.42924160       3.41737135
C       -2.13396116       3.89185542       2.95120673
N       -1.65508328       5.11257722       3.23351840
C       -2.42677698       5.94041738       3.97043505
C       -3.66445214       5.59329896       4.47881773
Br      -4.63191396       6.86513191       5.49754006
C       -4.14639047       4.29621863       4.25403135
N       -5.44891301       3.93794758       4.68596524
C       -1.35657715       3.06406401       2.15537769
H       -3.38017613       0.33780898       1.93063709
H       -4.79050082       1.75925051       3.33289034
H       -1.99973273       6.92509918       4.13994083
H       -5.78588818       4.53700269       5.43785975
H       -5.54657782       2.95594823       4.92147010
H       -0.39354205       3.43098483       1.80801627
C        1.79168445      -1.79168445       1.79168445
C        3.06041936      -1.35997047       2.14795529
C        3.85491776      -2.17413575       2.95477027
C        3.38947987      -3.42805561       3.41899312
C        2.09707601      -3.85553639       3.02441091
N        1.58130707      -5.04232251       3.37754933
C        2.34923846      -5.87148147       4.11690949
C        3.62048412      -5.55680122       4.55928349
Br       4.57772887      -6.82602004       5.59083702
C        4.14485911      -4.29157645       4.26020489
N        5.47804888      -3.97162827       4.62314869
C        1.32096147      -3.02858327       2.22647411
H        3.44252115      -0.40209675       1.80400431
H        4.85205057      -1.82384767       3.20674342
H        1.89003578      -6.82942956       4.34530739
H        5.82196552      -4.55333549       5.38544961
H        5.62552505      -2.98588579       4.81258531
H        0.32990911      -3.36813331       1.93450073
C       -0.00445707       0.01189536      -1.78238275
H       -0.66409135       0.67374010      -2.43557963
H        0.65740317      -0.63156657      -2.45157240
C       -0.90989263      -0.90692880      -0.91072765
C        0.90977584       0.90977584      -0.90977584
C       -0.00465871       1.77757030       0.00794375
H       -0.66225468       2.44313916      -0.64384735
H        0.64322798       2.43503045       0.67728295
C       -1.78241447       0.00034974      -0.00472694
H       -2.45427497      -0.65498947       0.64260836
H       -2.43311707       0.67328779      -0.65473579
C       -0.91132561       0.90220522       0.91563759
C       -0.01476271      -0.02253852       1.78660255
H       -0.67934791      -0.69751639       2.42135241
H        0.63392994       0.61504881       2.47327442
C        0.01484550      -1.77751727      -0.01636693
H        0.67870853      -2.42144646      -0.68295456
H       -0.62264859      -2.45592969       0.64226336
C        1.78714474       0.01002794       0.00389507
H        2.44202412       0.67113390       0.66197326
H        2.45385902      -0.65136977      -0.64189061
C        0.91606151      -0.90478549       0.90901405
