157
Properties=species:S:1:pos:R:3 pbc="F F F"
C        0.00000000       0.00000000       0.00000000
C        0.88521377       0.88521377      -0.88521377
C        0.71390605       2.25486225      -0.85977260
N        1.46485521       3.12762095      -1.57491178
C        2.41658834       2.63261971      -2.38956069
C        2.64156740       1.23660645      -2.51674946
C        1.90086741       0.35143690      -1.68642492
N        2.06224822      -1.05456314      -1.79490438
C        3.60117446       0.79123333      -3.45279204
C        4.37618051       1.69221624      -4.17745726
C        4.21052599       3.05656911      -3.99271291
C        3.20686981       3.51330885      -3.12652028
C        5.05444006       3.95157643      -4.73040291
C        5.69292485       4.65033455      -5.46886221
C        6.17270367       5.60203906      -6.57949059
C        5.83037325       6.39772388      -7.40825292
C        4.70953755       7.14609146      -7.89262254
C        4.70573062       8.53142007      -7.90826736
C        3.51111168       9.19464599      -7.61199386
C        2.36235583       8.46124446      -7.20099467
C        2.37033006       7.05849984      -7.32171827
C        3.50918435       6.43791782      -7.79089097
N        1.42426776       6.24901975      -6.85126461
C        0.46294704       6.81000713      -6.09655545
C        0.33867534       8.17037145      -5.90395208
C        1.23610224       9.03566140      -6.55329335
N        1.16516070      10.43263849      -6.32863130
Br      -1.02353491       8.80773340      -4.75088682
H       -0.04883428       2.71683907      -0.23847139
H        1.66331078      -1.55058466      -1.00122754
H        3.02373815      -1.33607599      -1.95955362
H        3.75354997      -0.26787865      -3.63288291
H        5.10935904       1.31923002      -4.88877309
H        3.02794001       4.58067830      -3.01273315
H        5.63087859       9.09683612      -7.98759359
H        3.53286614      10.27769211      -7.52760421
H        3.52174140       5.34447683      -7.79121749
H       -0.20187181       6.09423649      -5.61206091
H        0.23403987      10.72329288      -6.03603770
H        1.49134065      10.97594914      -7.12075885
C       -0.88521377      -0.88521377      -0.88521377
C       -0.88090519      -2.25259974      -0.69503598
N       -1.65005945      -3.11957544      -1.39775305
C       -2.44501907      -2.62668219      -2.36706748
C       -2.48844239      -1.23963708      -2.66684384
C       -1.74011395      -0.34568881      -1.85292646
N       -1.72154053       1.04670861      -2.12775754
C       -3.28421910      -0.80928120      -3.75169954
C       -4.07945957      -1.70270814      -4.46368631
C       -4.09694491      -3.04540975      -4.11745334
C       -3.25163941      -3.49991326      -3.09514627
C       -4.95813588      -3.92719474      -4.85108879
C       -5.59318794      -4.63702391      -5.58190977
C       -6.06214881      -5.65742705      -6.63465747
C       -5.73074517      -6.57732231      -7.32828257
C       -4.66150595      -7.49202337      -7.59472223
C       -4.82008843      -8.86204870      -7.46328093
C       -3.75044051      -9.60807413      -6.95923689
C       -2.57286911      -8.95674386      -6.49498201
C       -2.40192448      -7.58522601      -6.76339768
C       -3.40328626      -6.90766642      -7.42704046
N       -1.42175619      -6.83031732      -6.27247860
C       -0.61880596      -7.39646951      -5.35423414
C       -0.67750821      -8.72992839      -5.00556227
C       -1.59735481      -9.56625732      -5.66144486
N       -1.71643431     -10.92643253      -5.28356365
Br       0.47010094      -9.36670620      -3.63848005
H       -0.24819569      -2.71579796       0.05751747
H       -1.35283651       1.58822885      -1.34934600
H       -2.62011468       1.40679741      -2.43389850
H       -3.29024930       0.23119539      -4.05950032
H       -4.68400157      -1.34115340      -5.29220718
H       -3.21336029      -4.55919863      -2.84879254
H       -5.79205962      -9.33189581      -7.59135287
H       -3.90905049     -10.66510407      -6.76400790
H       -3.28620833      -5.82679506      -7.54443233
H        0.07110587      -6.70269139      -4.87284007
H       -0.86245098     -11.27719080      -4.85372868
H       -2.01906482     -11.52215004      -6.04683380
C       -0.88521377       0.88521377       0.88521377
C       -0.33169857       1.98219183       1.51465050
N       -1.03164606       2.84710633       2.28863555
C       -2.34215656       2.60814265       2.48846953
C       -2.99363370       1.48284508       1.91844453
C       -2.25541486       0.64523420       1.03808016
N       -2.84748018      -0.51106685       0.46617612
C       -4.34977673       1.25439034       2.24103277
C       -5.06619322       2.15111403       3.02854676
C       -4.44906365       3.29220529       3.51853907
C       -3.08284028       3.49075473       3.27310393
C       -5.23153419       4.21033499       4.29455023
C       -5.89646621       4.87112737       5.04452804
C       -6.51660382       5.56956755       6.26806196
C       -6.35897235       5.85592907       7.42144864
C       -5.40171730       5.85991543       8.48661883
C       -5.00415699       7.03188604       9.10937502
C       -3.66600016       7.15713671       9.49461466
C       -2.72093306       6.14796983       9.15569208
C       -3.18696555       4.92352506       8.64005755
C       -4.54127314       4.75998142       8.43673858
N       -2.41020598       3.95588427       8.15846186
C       -1.09875364       4.22939795       8.04135802
C       -0.51452261       5.38754578       8.51093048
C       -1.31231296       6.32948724       9.18325680
N       -0.74875609       7.55147639       9.62619801
Br       1.33492302       5.66533254       8.20467578
H        0.72361027       2.22006932       1.41001714
H       -2.30331393      -0.87825386      -0.31110642
H       -3.81902342      -0.37594091       0.20413327
H       -4.86517132       0.36841204       1.88497086
H       -6.11011772       1.94986990       3.25737453
H       -2.57158720       4.35289310       3.69687115
H       -5.66205258       7.89604571       9.15721001
H       -3.33379150       8.11222177       9.89214919
H       -4.86875771       3.83546811       7.95320991
H       -0.52787748       3.46902426       7.50752385
H        0.25579174       7.47451403       9.77464815
H       -1.21666932       7.92737935      10.44399998
C        0.88521377      -0.88521377       0.88521377
C        2.25772741      -0.75213541       0.81867808
N        3.12718304      -1.45901217       1.58119273
C        2.62948163      -2.37471749       2.43456961
C        1.23460368      -2.61484476       2.54547488
C        0.34350296      -1.79500635       1.80021991
N       -1.05829366      -2.01247252       1.84841059
C        0.79477705      -3.64845764       3.40196515
C        1.69135184      -4.36464693       4.18985524
C        3.04632812      -4.07388226       4.13959763
C        3.50572529      -3.10568370       3.23528996
C        3.93315010      -4.80858067       4.99468864
C        4.63904870      -5.54233980       5.63073311
C        5.63533434      -6.61695667       6.10194233
C        6.51241674      -7.36069998       5.76323334
C        7.37074719      -7.70707962       4.67042474
C        8.75030504      -7.62627449       4.76883852
C        9.47085147      -7.19647322       3.65042683
C        8.79029582      -6.75283053       2.48146862
C        7.40329067      -6.97081386       2.37644363
C        6.74192509      -7.56550017       3.43056788
N        6.62856058      -6.48841470       1.40757684
C        7.19703903      -5.62704599       0.54542459
C        8.54459128      -5.33182519       0.53658240
C        9.39155176      -5.98468505       1.44882019
N       10.76943735      -5.65900892       1.49798422
Br       9.18715227      -4.03898473      -0.69105169
H        2.72388318      -0.04515401       0.13743900
H       -1.58324113      -1.22758127       1.46961352
H       -1.39275521      -2.26747715       2.77249385
H       -0.25597099      -3.91243181       3.46209341
H        1.32248568      -5.15279872       4.84207776
H        4.57147306      -2.90511606       3.14476233
H        9.25452908      -7.73494807       5.72583116
H       10.54046699      -7.03902537       3.75867010
H        5.65332144      -7.64260102       3.36151326
H        6.49497770      -5.14514805      -0.13570016
H       11.10134740      -5.27835520       0.61366784
H       11.34635899      -6.43365445       1.80803521
