141
Properties=species:S:1:pos:R:3 pbc="F F F"
C        0.00000000       0.00000000       0.00000000
C        0.88162713       0.88162713      -0.88162713
C        0.46477328       2.16271241      -1.21088814
C        1.28078924       2.95639090      -2.01669754
C        2.52651099       2.48460023      -2.49925255
C        2.91827514       1.16660728      -2.16272293
C        2.09490977       0.39361647      -1.35777692
N        4.05648699       0.61340390      -2.59842522
C        4.84723356       1.34671046      -3.40940546
C        4.57896412       2.64929837      -3.81827994
C        3.41158094       3.25416907      -3.30981778
N        3.02646362       4.53961105      -3.76348381
C        5.52935087       3.33643216      -4.70332768
C        6.47069405       4.20093577      -4.15382435
N        7.39504145       4.88582997      -4.85883694
C        7.40360058       4.74134216      -6.18973217
C        6.50452151       3.89117798      -6.87609045
C        5.57838327       3.13640137      -6.09808724
N        4.58775443       2.34905991      -6.73447955
C        6.57414832       3.84484628      -8.29078168
C        7.51546999       4.59355474      -8.99720805
C        8.39650745       5.40429452      -8.29835781
C        8.33471483       5.47564934      -6.90919482
Br       9.67959538       6.42613041      -9.23721588
H       -0.48530019       2.55107338      -0.85478215
H        0.92507136       3.95068917      -2.27679946
H        2.41381642      -0.61506392      -1.10662280
H        5.74677590       0.83124154      -3.74022500
H        3.76998464       5.08533677      -4.19060194
H        2.50463936       5.08469926      -3.08656452
H        6.50800140       4.37708209      -3.08061750
H        4.07992422       1.71827573      -6.12057369
H        4.90196565       1.87893433      -7.57582613
H        5.88249003       3.23053114      -8.86079305
H        7.54618099       4.53790126     -10.08194863
H        9.02016756       6.12126062      -6.36506248
C       -0.88162713      -0.88162713      -0.88162713
C       -0.31308019      -1.91711757      -1.60817608
C       -1.13099076      -2.71410633      -2.40878060
C       -2.52797082      -2.49245610      -2.48993686
C       -3.07843002      -1.41709842      -1.75207691
C       -2.24960401      -0.63757525      -0.95912391
N       -4.37827768      -1.10028150      -1.78975693
C       -5.18590500      -1.83267088      -2.58477359
C       -4.77390399      -2.91070877      -3.36192967
C       -3.41722313      -3.28354974      -3.27479492
N       -2.90990997      -4.30611642      -4.11353209
C       -5.76081607      -3.62570749      -4.18258714
C       -6.33256000      -4.79692764      -3.69596653
N       -7.24881673      -5.53960755      -4.35128408
C       -7.63007504      -5.13534712      -5.56925275
C       -7.13069968      -3.96082618      -6.18026408
C       -6.20807026      -3.16648716      -5.43831447
N       -5.59657109      -2.03778572      -6.03693709
C       -7.57137372      -3.64805265      -7.49034992
C       -8.49108181      -4.45510420      -8.16004677
C       -8.97818740      -5.59026151      -7.53071086
C       -8.54643197      -5.92351461      -6.24961240
Br     -10.22533809      -6.69643066      -8.42117291
H        0.75506274      -2.11070125      -1.56491683
H       -0.66049976      -3.50855133      -2.98350890
H       -2.69055621       0.18177985      -0.39659895
H       -6.22557459      -1.51110747      -2.58156037
H       -3.61180971      -4.92700849      -4.50710514
H       -2.13156646      -4.82346010      -3.72087658
H       -6.05477871      -5.19066216      -2.72026012
H       -5.08627829      -1.43534483      -5.39715054
H       -6.20609816      -1.50424604      -6.64638191
H       -7.19000041      -2.77348678      -8.01032702
H       -8.81164195      -4.19040961      -9.16397932
H       -8.92228130      -6.82078634      -5.76342303
C       -0.88162713       0.88162713       0.88162713
C       -1.76813845       1.77347344       0.29676195
C       -2.56711211       2.57192669       1.11483888
C       -2.49669847       2.48638426       2.52728105
C       -1.56988602       1.58070347       3.09701586
C       -0.78618044       0.79287624       2.26724649
N       -1.39887225       1.45129086       4.41815300
C       -2.13339527       2.23800273       5.23195147
C       -3.07444336       3.16886774       4.80323134
C       -3.29944420       3.26141502       3.41470858
N       -4.16874285       4.25653788       2.90427775
C       -3.80932298       3.96089385       5.79889388
C       -5.08040555       3.55371942       6.19132921
N       -5.85138821       4.19253356       7.09578659
C       -5.37174925       5.31270269       7.65022297
C       -4.09298665       5.83517415       7.34362914
C       -3.27895738       5.10556172       6.42835279
N       -2.03414712       5.63223902       6.00490776
C       -3.70116943       7.05068742       7.95791944
C       -4.53472381       7.71059704       8.86091193
C       -5.77504377       7.16682771       9.15728830
C       -6.18518429       5.98137021       8.55300448
Br      -6.91879806       8.04554373      10.37859988
H       -1.84391393       1.86016548      -0.78352407
H       -3.24166142       3.27673373       0.63416484
H       -0.08245855       0.10031414       2.72260261
H       -1.93259513       2.09386981       6.29177749
H       -4.82165595       4.64454596       3.57972144
H       -4.63234854       4.00497014       2.03858446
H       -5.53682890       2.66142004       5.76745204
H       -1.44582060       4.98358768       5.48936536
H       -1.51371084       6.11331787       6.72969741
H       -2.74135754       7.50495281       7.72750387
H       -4.20781971       8.64097643       9.31723473
H       -7.16341428       5.56361242       8.77946397
C        0.88162713      -0.88162713       0.88162713
C        1.86691892      -0.30349371       1.66796120
C        2.66416090      -1.12145264       2.46826415
C        2.48448616      -2.52644879       2.49942882
C        1.48364635      -3.09113874       1.67282026
C        0.69876314      -2.26128911       0.88625091
N        1.25926538      -4.40863897       1.60041177
C        2.04071537      -5.22563545       2.33699865
C        3.05863842      -4.80215425       3.18574976
C        3.25425753      -3.41162916       3.30968110
N        4.33648242      -2.91570899       4.07736706
C        3.83385101      -5.80056543       3.93469426
C        3.48975766      -6.08292857       5.25276794
N        4.12066505      -6.97784000       6.04120331
C        5.16821921      -7.63635265       5.53010305
C        5.62113630      -7.44777060       4.20288305
C        4.89759009      -6.53866055       3.37662124
N        5.36442152      -6.23186173       2.07501065
C        6.76577867      -8.16676867       3.77722895
C        7.42202899      -9.05767812       4.62652567
C        6.94594683      -9.23708385       5.91612910
C        5.83183775      -8.52892436       6.35879687
Br       7.82088344     -10.44007585       7.08198238
H        2.02700203       0.77104685       1.66460015
H        3.44222204      -0.64783279       3.06250516
H       -0.06747722      -2.71238468       0.26046784
H        1.81625638      -6.28384915       2.21813690
H        4.72420606      -3.57308035       4.74863693
H        4.17245393      -2.00724322       4.49620599
H        2.65921779      -5.57134650       5.73513669
H        4.71140776      -5.71191098       1.49545491
H        5.76206223      -7.01921716       1.57544672
H        7.16758775      -8.02914584       2.77708063
H        8.29721129      -9.59592157       4.27289801
H        5.46787927      -8.66391541       7.37469599
