149
Properties=species:S:1:pos:R:3 pbc="F F F"
C        0.00000000       0.00000000       0.00000000
C        0.88162713       0.88162713      -0.88162713
C        0.46477328       2.16271241      -1.21088814
C        1.28078924       2.95639090      -2.01669754
C        2.52651099       2.48460023      -2.49925255
C        2.91827514       1.16660728      -2.16272293
C        2.09490977       0.39361647      -1.35777692
N        4.05648699       0.61340390      -2.59842522
C        4.84723356       1.34671046      -3.40940546
C        4.57896412       2.64929837      -3.81827994
C        3.41158094       3.25416907      -3.30981778
N        3.02646362       4.53961105      -3.76348381
C        5.52935087       3.33643216      -4.70332768
C        6.47069405       4.20093577      -4.15382435
N        7.39504145       4.88582997      -4.85883694
C        7.40360058       4.74134216      -6.18973217
C        6.50452151       3.89117798      -6.87609045
C        5.57838327       3.13640137      -6.09808724
N        4.58775443       2.34905991      -6.73447955
C        6.57414832       3.84484628      -8.29078168
C        7.51546999       4.59355474      -8.99720805
C        8.39650745       5.40429452      -8.29835781
C        8.33471483       5.47564934      -6.90919482
H       -0.48530019       2.55107338      -0.85478215
H        0.92507136       3.95068917      -2.27679946
H        2.41381642      -0.61506392      -1.10662280
H        5.74677590       0.83124154      -3.74022500
H        3.76998464       5.08533677      -4.19060194
H        2.50463936       5.08469926      -3.08656452
H        6.50800140       4.37708209      -3.08061750
H        4.07992422       1.71827573      -6.12057369
H        4.90196565       1.87893433      -7.57582613
H        5.88249003       3.23053114      -8.86079305
H        7.54618099       4.53790126     -10.08194863
H        9.02016756       6.12126062      -6.36506248
C        9.37412320       6.18285602      -9.01369650
C       10.19287639       6.83490127      -9.61279265
Br      11.51673105       7.88920330     -10.58148046
C       -0.88162713      -0.88162713      -0.88162713
C       -0.34061117      -2.00027890      -1.49748376
C       -1.15818967      -2.79615404      -2.29953396
C       -2.52797249      -2.48996069      -2.49243059
C       -3.04893594      -1.33201518      -1.86665423
C       -2.22121305      -0.55477317      -1.07031695
N       -4.31821966      -0.93439625      -2.01570021
C       -5.12141203      -1.66624924      -2.81568820
C       -4.73589292      -2.82056695      -3.49008256
C       -3.41718193      -3.27420814      -3.28417773
N       -2.92888910      -4.38383748      -4.01683189
C       -5.71465799      -3.52519268      -4.32926004
C       -6.39741824      -4.61969307      -3.80834286
N       -7.31858437      -5.34493141      -4.47619258
C       -7.59029894      -5.00275202      -5.74162395
C       -6.97122122      -3.90893373      -6.39163499
C       -6.04575871      -3.12663447      -5.64047871
N       -5.31908277      -2.08488210      -6.26732903
C       -7.30245742      -3.66037974      -7.74693912
C       -8.23061908      -4.45047415      -8.42513955
C       -8.83592881      -5.50462987      -7.75860110
C       -8.51310860      -5.77501306      -6.43143732
H        0.70627890      -2.25970794      -1.36712629
H       -0.70784780      -3.65785099      -2.78686120
H       -2.63961361       0.32893767      -0.59469936
H       -6.13404955      -1.27803875      -2.90615413
H       -3.64526276      -4.98355152      -4.41710906
H       -2.21591553      -4.92219632      -3.53779129
H       -6.21214927      -4.96156923      -2.79198248
H       -4.81080634      -1.47381320      -5.63415411
H       -5.84872432      -1.55657809      -6.95142371
H       -6.82775016      -2.85107229      -8.29499177
H       -8.46564622      -4.23622526      -9.46415940
H       -8.98169762      -6.60964449      -5.91514856
C       -9.79640381      -6.32894502      -8.44532689
C      -10.60080162      -7.01930896      -9.02045973
Br     -11.90144485      -8.13556906      -9.95040090
C       -0.88162713       0.88162713       0.88162713
C       -2.16323774       0.46544489       1.20969121
C       -2.95668167       1.28116098       2.01603503
C       -2.47943874       2.51991221       2.51101283
C       -1.17431775       2.92813269       2.14515491
C       -0.39917849       2.10202060       1.34510408
N       -0.64431274       4.09600278       2.52800059
C       -1.40408072       4.92057928       3.27868946
C       -2.69951023       4.64315809       3.70387411
C       -3.23514198       3.38725551       3.35317030
N       -4.58206656       3.08074140       3.66675051
C       -3.41587543       5.63091612       4.52231915
C       -3.43191017       5.48752369       5.90602031
N       -4.05028311       6.32682616       6.76259908
C       -4.71489261       7.36978583       6.24999647
C       -4.77541321       7.63498305       4.86139368
C       -4.06310056       6.76313341       3.98663792
N       -4.17120584       6.91729959       2.58278847
C       -5.54193488       8.74381238       4.42402902
C       -6.20309078       9.57320139       5.32994061
C       -6.11184195       9.30108028       6.68623755
C       -5.37625363       8.20764114       7.13566422
H       -2.55540612      -0.47976093       0.84491015
H       -3.96455191       0.94279435       2.24521373
H        0.60216086       2.43031249       1.07722367
H       -0.91907433       5.85906683       3.54010127
H       -4.99410296       3.65334564       4.39847475
H       -4.76418096       2.09486874       3.81685344
H       -2.92593216       4.65276069       6.38700814
H       -3.51007727       6.37067523       2.03802115
H       -4.20847384       7.88019446       2.26805781
H       -5.64251234       8.96611745       3.36518443
H       -6.78326061      10.41678863       4.96598163
H       -5.31607082       7.99076262       8.19965722
C       -6.78855284      10.14848384       7.63363904
C       -7.35529820      10.85818433       8.42708778
Br      -8.27167753      12.00571000       9.71002729
C        0.88162713      -0.88162713       0.88162713
C        2.19081249      -0.50542497       1.14213638
C        2.98391060      -1.32060130       1.94936578
C        2.47914114      -2.51861346       2.51260917
C        1.14525647      -2.88738746       2.21496142
C        0.37109630      -2.06233040       1.41287646
N        0.58601781      -4.01686821       2.66543009
C        1.34288295      -4.84169639       3.41877013
C        2.66439211      -4.60079985       3.78135046
C        3.23399755      -3.38239930       3.35917094
N        4.60351648      -3.11891402       3.60712797
C        3.37430123      -5.58413511       4.61067437
C        3.45221098      -5.38753251       5.98571068
N        4.07163873      -6.21717123       6.85089840
C        4.67356372      -7.30554719       6.35556400
C        4.66712640      -7.62706678       4.97759676
C        3.95444138      -6.76182142       4.09660909
N        3.99923301      -6.97501881       2.69704208
C        5.37128729      -8.78241256       4.55607644
C        6.03582445      -9.60196571       5.46844261
C        6.01053881      -9.27354598       6.81507499
C        5.33715110      -8.13435287       7.24805502
H        2.60446476       0.40806020       0.72415077
H        4.01272662      -1.01481939       2.12501399
H       -0.65237995      -2.35983224       1.19792301
H        0.83259766      -5.74873777       3.73690700
H        5.02228237      -3.67876540       4.34487558
H        4.82998688      -2.13615329       3.70976297
H        2.99923983      -4.51471127       6.45174988
H        3.33836240      -6.42366331       2.15674794
H        3.98599599      -7.95019936       2.42053076
H        5.41993578      -9.04984727       3.50403117
H        6.56728554     -10.48204075       5.11670459
H        5.32883024      -7.87377824       8.30388219
C        6.69158996     -10.11009594       7.76898982
C        7.26197030     -10.81070653       8.56789348
Br       8.18422707     -11.94353460       9.85965314
