165
Properties=species:S:1:pos:R:3 pbc="F F F"
C        0.00000000       0.00000000       0.00000000
C        0.88178960       0.88178960      -0.88178960
C        0.52007779       2.19968383      -1.11509428
C        1.33414354       2.99530090      -1.92006469
C        2.52156959       2.48498778      -2.49905875
C        2.85802851       1.12903391      -2.26401160
C        2.03781254       0.35659742      -1.45442329
N        3.93736193       0.54258170      -2.80235211
C        4.71065286       1.27808339      -3.63121636
C        4.48204976       2.61062241      -3.92998451
C        3.40066016       3.25704365      -3.30820780
N        3.07903026       4.59747729      -3.65098570
C        5.35737823       3.29843886      -4.83069805
C        6.06311268       3.92024217      -5.57677153
C        6.94468869       4.74245551      -6.51678464
C        7.65674099       5.36410383      -7.25451042
C        8.54417722       6.05611310      -8.14107791
C        8.32556230       7.39324545      -8.42720597
N        9.09915035       8.12800141      -9.25583505
C       10.12078028       7.51463583      -9.87004996
C       10.43954165       6.15036907      -9.65775751
C        9.65907704       5.42488245      -8.71610031
N        9.87225661       4.03441258      -8.51876197
C       11.51085774       5.58650390     -10.39207637
C       12.25834082       6.35042392     -11.28631411
C       11.94245990       7.68859771     -11.46198610
C       10.88185623       8.25976433     -10.75987225
H       -0.38633767       2.61720841      -0.68509255
H        1.02116420       4.01915554      -2.10429793
H        2.31041046      -0.68174880      -1.27865071
H        5.54834173       0.73756805      -4.06512367
H        3.86858263       5.12088130      -4.01940711
H        2.62455600       5.10899300      -2.90258431
H        7.49215239       7.93556611      -7.98884017
H        9.43805360       3.67538914      -7.67197408
H       10.84821972       3.76230156      -8.56611847
H       11.76574936       4.53523962     -10.28584964
H       13.07467271       5.89134857     -11.83823932
H       10.62934019       9.30504963     -10.90977459
C       12.70800011       8.49007959     -12.38132009
C       13.34914004       9.16132066     -13.15126231
Br      14.38580908      10.24666069     -14.39619376
C       -0.88178960      -0.88178960      -0.88178960
C       -0.30240836      -1.87106054      -1.66138700
C       -1.11793786      -2.67094735      -2.46062391
C       -2.52285095      -2.49460856      -2.48815660
C       -3.08879763      -1.46255009      -1.69972630
C       -2.26010830      -0.68238978      -0.90633517
N       -4.40180322      -1.18934681      -1.69114572
C       -5.20496868      -1.91445676      -2.50052717
C       -4.76474798      -2.94817314      -3.30973556
C       -3.40421398      -3.29586537      -3.26583225
N       -2.89457223      -4.29160871      -4.14131230
C       -5.69763147      -3.64899804      -4.13988563
C       -6.43962296      -4.26915074      -4.85135269
C       -7.35767469      -5.08248362      -5.76377053
C       -8.10234163      -5.70693872      -6.46607490
C       -9.03986516      -6.41955292      -7.28195015
C       -8.60282815      -7.46426125      -8.07892433
N       -9.40636689      -8.18887151      -8.88774841
C      -10.70210937      -7.85109312      -8.95226357
C      -11.26258976      -6.79931013      -8.18576834
C      -10.40956266      -6.10966259      -7.28083455
N      -10.88764656      -4.99231112      -6.54547349
C      -12.63357134      -6.49289030      -8.36297638
C      -13.42996916      -7.21724709      -9.24786261
C      -12.86553458      -8.25614628      -9.97136285
C      -11.51392968      -8.56468020      -9.82288293
H        0.77290525      -2.02764235      -1.66122619
H       -0.64026819      -3.42715036      -3.07719912
H       -2.70840978       0.10360154      -0.30250413
H       -6.25185788      -1.62181101      -2.47736457
H       -3.60023419      -4.95138164      -4.45725520
H       -2.08450332      -4.77818812      -3.77344188
H       -7.55769121      -7.76122373      -8.09764372
H      -10.28461766      -4.73185575      -5.76894339
H      -11.84915907      -5.08985455      -6.23762614
H      -13.09453397      -5.67097863      -7.82132602
H      -14.47947033      -6.95937500      -9.36541528
H      -11.07245602      -9.37083262     -10.40087578
C      -13.67750867      -9.01421536     -10.88767576
C      -14.35753697      -9.64909821     -11.65508783
Br     -15.45708521     -10.67565009     -12.89592823
C       -0.88178960       0.88178960       0.88178960
C       -1.76175397       1.77812776       0.29497418
C       -2.56293261       2.57621666       1.11035985
C       -2.49732959       2.48611501       2.52217151
C       -1.57441175       1.57858258       3.09807968
C       -0.79136645       0.78884277       2.26862403
N       -1.40786510       1.45164482       4.42278582
C       -2.13297712       2.25478237       5.23219312
C       -3.06601138       3.17384466       4.78280064
C       -3.30669314       3.25803105       3.40118741
N       -4.19157757       4.24506660       2.89084908
C       -3.77576784       3.98614562       5.72460168
C       -4.39888584       4.68810336       6.47313719
C       -5.21325039       5.59222672       7.39845173
C       -5.84153289       6.28522089       8.14860147
C       -6.56442930       7.08392698       9.09301195
C       -7.50954479       7.99146683       8.64500211
N       -8.23423079       8.79398306       9.45477296
C       -7.99673427       8.73584635      10.77288545
C       -7.05215823       7.84895372      11.34655629
C       -6.36537040       6.95731828      10.47737111
N       -5.34676708       6.10222932      10.97643477
C       -6.84352087       7.89979971      12.74611744
C       -7.56178627       8.77843571      13.55485687
C       -8.49640583       9.62185320      12.97478468
C       -8.70657038       9.59830746      11.59661497
H       -1.83191198       1.86959926      -0.78554795
H       -3.23129435       3.28446897       0.62885435
H       -0.09011798       0.09305316       2.72414122
H       -1.92701360       2.13139747       6.29262238
H       -4.88031726       4.55965580       3.56889797
H       -4.63795854       3.97770623       2.02046855
H       -7.72026614       8.11064894       7.58564358
H       -5.09706937       5.35396405      10.33438339
H       -5.54286728       5.73315260      11.90061987
H       -6.10299190       7.26203570      13.22181102
H       -7.38023791       8.79751024      14.62651246
H       -9.43030673      10.26951159      11.14434609
C       -9.24710957      10.53326477      13.79902544
C       -9.87582396      11.29657197      14.48932708
Br     -10.89240194      12.53077515      15.60548644
C        0.88178960      -0.88178960       0.88178960
C        1.88687530      -0.30506859       1.64291201
C        2.68392844      -1.12012143       2.44545925
C        2.48433870      -2.52112345       2.50015396
C        1.46549053      -3.08929225       1.69629124
C        0.67923478      -2.25957759       0.91002088
N        1.22765399      -4.40824693       1.64639481
C        2.02406911      -5.22340675       2.37247676
C        3.04580101      -4.78117013       3.19568554
C        3.25131022      -3.39671929       3.31788209
N        4.34126975      -2.90292579       4.08329771
C        3.84026869      -5.72980541       3.91644103
C        4.53244755      -6.48391254       4.54376629
C        5.42780026      -7.41576096       5.36036762
C        6.11136359      -8.17037059       5.99362106
C        6.89317789      -9.11953439       6.72865595
C        7.90432258      -8.67685158       7.56483956
N        8.70005895      -9.49235456       8.29057329
C        8.52541111     -10.81553750       8.16451745
C        7.52550834     -11.38474474       7.33741515
C        6.64863448     -10.50022400       6.65120132
N        5.67994482     -11.00331454       5.74217181
C        7.45546100     -12.79548692       7.23849010
C        8.32642307     -13.61654545       7.95211033
C        9.28278755     -13.03822758       8.77202858
C        9.37850677     -11.65082477       8.87216127
H        2.06360792       0.76685542       1.61921080
H        3.47727032      -0.64869895       3.01864840
H       -0.10242781      -2.70860721       0.30113297
H        1.80621440      -6.28287667       2.26194238
H        4.65889224      -3.55103407       4.79894471
H        4.17589555      -1.98319071       4.47704706
H        8.11830175      -7.61775589       7.68050102
H        4.96377984     -10.32362999       5.49800699
H        5.26022259     -11.87781696       6.03860021
H        6.72682933     -13.27214033       6.58786896
H        8.25129979     -14.69678710       7.85617371
H       10.13729343     -11.20138364       9.50548735
C       10.18778003     -13.87491589       9.51670387
C       10.94571122     -14.57564235      10.14036943
Br      12.17122187     -15.70865777      11.14878389
