81
Properties=species:S:1:pos:R:3 pbc="F F F"
C        0.00000000       0.00000000       0.00000000
C        0.88279211       0.88279211      -0.88279211
C        0.56024706       2.22505559      -1.04969152
C        1.36811733       3.02366009      -1.85373616
C        2.49335650       2.47238026      -2.48780468
C        3.33317479       3.35595862      -3.34010897
O        3.04670349       4.54262247      -3.47236847
C        4.51135354       2.74101810      -4.00924694
Br       5.59857599       3.78277315      -5.10049859
C        4.73368861       1.43862015      -3.78791539
N        3.97483859       0.59602151      -2.99415868
C        4.31127220      -0.81943838      -2.82981456
C        2.83536584       1.10992116      -2.33245552
C        2.00350792       0.32839065      -1.51217230
H       -0.31021433       2.65729887      -0.56300761
H        1.12230066       4.07548794      -1.98854335
H        5.58386152       0.95000724      -4.25805967
H        5.21060356      -1.08776890      -3.39638512
H        3.50123785      -1.45906831      -3.19763650
H        4.51575250      -1.05343007      -1.77914689
H        2.21103295      -0.72451098      -1.34867455
C       -0.88279211      -0.88279211      -0.88279211
C       -0.40515359      -2.11526313      -1.31457745
C       -1.21370396      -2.91463516      -2.11717447
C       -2.49541288      -2.47367626      -2.48445229
C       -3.33109145      -3.35442255      -3.34372837
O       -2.90499557      -4.44597453      -3.71072434
C       -4.67933009      -2.85516200      -3.72712650
Br      -5.77367993      -3.89744480      -4.81072299
C       -5.04447323      -1.65266584      -3.26308508
N       -4.29171563      -0.81705111      -2.45625205
C       -4.79372740       0.48489980      -2.01282078
C       -2.99683304      -1.22309315      -2.05781633
C       -2.15975117      -0.43870110      -1.24561859
H        0.58653647      -2.46148222      -1.03514640
H       -0.84685311      -3.88100912      -2.45846971
H       -6.02162248      -1.25041762      -3.51988833
H       -5.80358761       0.67771908      -2.39335124
H       -4.15527609       1.29594122      -2.38047117
H       -4.85185026       0.53001691      -0.91963597
H       -2.48462030       0.53101070      -0.88158692
C       -0.88279211       0.88279211       0.88279211
C       -2.07693688       0.37526684       1.38279045
C       -2.87571531       1.18335433       2.18644394
C       -2.47460972       2.49614079       2.48279093
C       -3.35407080       3.33081716       3.34435441
O       -4.40118827       2.87007132       3.79043486
C       -2.90936812       4.72159992       3.63065054
Br      -3.96544065       5.82670297       4.68970411
C       -1.74534040       5.11674068       3.09814306
N       -0.90411978       4.35961162       2.30128739
C        0.34704770       4.90122421       1.76747187
C       -1.26600969       3.03029928       1.98143355
C       -0.47809942       2.19047391       1.17549754
H       -2.39374419      -0.63935846       1.15570642
H       -3.81157367       0.79270747       2.58205080
H       -1.38385087       6.12567348       3.28240408
H        0.50527586       5.93805852       2.08643712
H        0.33591827       4.90390021       0.67182410
H        1.20705191       4.32389962       2.12462161
H        0.46293571       2.53770506       0.76042717
C        0.88279211      -0.88279211       0.88279211
C        2.11355024      -0.40365403       1.31778991
C        2.91217018      -1.21154598       2.12179742
C        2.47412311      -2.49580408       2.48361425
C        3.35456218      -3.33121369       3.34346650
O        4.43466810      -2.89509728       3.73192907
C        2.86967906      -4.69203913       3.69990039
Br       3.92403646      -5.79695975       4.76085152
C        1.67192963      -5.06133783       3.22695669
N        0.82928999      -4.30243023       2.43329856
C       -0.46099269      -4.81465701       1.96798407
C        1.22788350      -3.00102678       2.04883223
C        0.44121249      -2.16194978       1.24090859
H        2.45897487       0.58873153       1.03984881
H        3.87660307      -0.84299580       2.46673307
H        1.28043904      -6.04790491       3.46358448
H       -0.64533341      -5.83193984       2.33261335
H       -0.49247926      -4.85867155       0.87361375
H       -1.28433883      -4.19147473       2.33433342
H       -0.52752352      -2.48767317       0.87504688
