89
Properties=species:S:1:pos:R:3 pbc="F F F"
C        0.00000000       0.00000000       0.00000000
C        0.88279211       0.88279211      -0.88279211
C        0.56024706       2.22505559      -1.04969152
C        1.36811733       3.02366009      -1.85373616
C        2.49335650       2.47238026      -2.48780468
C        3.33317479       3.35595862      -3.34010897
O        3.04670349       4.54262247      -3.47236847
C        4.51135354       2.74101810      -4.00924694
C        4.73368861       1.43862015      -3.78791539
N        3.97483859       0.59602151      -2.99415868
C        4.31127220      -0.81943838      -2.82981456
C        2.83536584       1.10992116      -2.33245552
C        2.00350792       0.32839065      -1.51217230
H       -0.31021433       2.65729887      -0.56300761
H        1.12230066       4.07548794      -1.98854335
H        5.58386152       0.95000724      -4.25805967
H        5.21060356      -1.08776890      -3.39638512
H        3.50123785      -1.45906831      -3.19763650
H        4.51575250      -1.05343007      -1.77914689
H        2.21103295      -0.72451098      -1.34867455
C        5.35325225       3.54770880      -4.85426569
C        6.05834242       4.22331225      -5.56196890
Br       7.19841359       5.31570590      -6.70626512
C       -0.88279211      -0.88279211      -0.88279211
C       -0.38396941      -2.08909385      -1.36193091
C       -1.19260335      -2.88863564      -2.16427460
C       -2.49569897      -2.47399253      -2.48384994
C       -3.33080889      -3.35405924      -3.34437424
O       -2.88552008      -4.42276927      -3.75340509
C       -4.70242947      -2.88258813      -3.67660098
C       -5.08711765      -1.70395878      -3.16914771
N       -4.33510511      -0.86988564      -2.36002804
C       -4.85985400       0.40483943      -1.86663382
C       -3.01892473      -1.25012012      -2.00869767
C       -2.18110205      -0.46500748      -1.19796133
H        0.62427254      -2.41481831      -1.11954638
H       -0.80921305      -3.83463099      -2.54248790
H       -6.08172547      -1.32245809      -3.38774487
H       -5.88490046       0.57953452      -2.21385384
H       -4.25439013       1.24324544      -2.22866135
H       -4.88844785       0.41841142      -0.77143290
H       -2.52199524       0.48488138      -0.79808266
C       -5.55071527      -3.68994606      -4.51456540
C       -6.26115464      -4.36610833      -5.21636060
Br      -7.40987500      -5.45940553      -6.35110408
C       -0.88279211       0.88279211       0.88279211
C       -2.07776393       0.37583812       1.38139212
C       -2.87653873       1.18392160       2.18505325
C       -2.47459876       2.49613406       2.48280863
C       -3.35408191       3.33082516       3.34433530
O       -4.40194379       2.87057399       3.78917666
C       -2.90847256       4.72100628       3.63213974
C       -1.74368335       5.11562729       3.10091350
N       -0.90243013       4.35846173       2.30412692
C        0.34962015       4.89948392       1.77178462
C       -1.26514869       3.02971048       1.98288335
C       -0.47726625       2.18989995       1.17690467
H       -2.39521771      -0.63833955       1.15321399
H       -3.81304250       0.79371937       2.57957007
H       -1.38151685       6.12411092       3.28630066
H        0.50843761       5.93592548       2.09173190
H        0.33939358       4.90306898       0.67613064
H        1.20885602       4.32115944       2.12916590
H        0.46439463       2.53669823       0.76289293
C       -3.72622082       5.57674904       4.45225688
C       -4.41108498       6.29343360       5.13910499
Br      -5.51845241       7.45225192       6.24968028
C        0.88279211      -0.88279211       0.88279211
C        2.10910538      -0.39984081       1.32604799
C        2.90774425      -1.20775864       2.13001069
C        2.47418236      -2.49584953       2.48350956
C        3.35450259      -3.33116051       3.34357927
O        4.43059972      -2.89173050       3.73936422
C        2.87450242      -4.69601659       3.69109958
C        1.68084808      -5.06878827       3.21058780
N        0.83837786      -4.31011589       2.41652504
C       -0.44715227      -4.82629515       1.94250551
C        1.23251323      -3.00496049       2.04026880
C        0.44569088      -2.16578180       1.23259818
H        2.45105609       0.59553191       1.05456797
H        3.86870795      -0.83623992       2.48138408
H        1.29300340      -6.05836458       3.44056045
H       -0.62832000      -5.84620808       2.30133170
H       -0.47315152      -4.86516138       0.84779618
H       -1.27526202      -4.20886877       2.30786257
H       -0.51968237      -2.49439414       0.86048476
C        3.69111682      -5.55164381       4.51246611
C        4.37503138      -6.26823162       5.20036057
Br       5.48086337      -7.42689349       6.31262775
