165
Properties=species:S:1:pos:R:3 pbc="F F F"
C        0.00000000       0.00000000       0.00000000
C        0.47499541       3.19128841      -3.78588547
N        1.11118914       2.42772665      -2.71142284
C        0.38184435       1.60535262      -1.86863987
C        0.86431097       0.86431097      -0.86431097
C        2.33115264       0.91882089      -0.61866470
O        2.87364423       0.27125028       0.27225812
C        3.13876248       1.79825438      -1.50521577
C        2.50978365       2.53375819      -2.53090697
C        3.33160454       3.34779648      -3.33293848
C        4.72578818       3.43610478      -3.13879024
C        5.30803928       2.68653596      -2.10947028
C        4.52259158       1.87324165      -1.29575716
C        5.55065305       4.29700517      -3.99965124
C        5.33434075       5.67956720      -4.04603533
C        6.12001680       6.49106023      -4.86142618
C        7.13474356       5.92557516      -5.64568025
C        7.38647500       4.53800496      -5.63275178
C        6.57669246       3.74715577      -4.79610058
N        8.41747451       4.00635901      -6.44155711
C        8.65962261       2.56288564      -6.42354506
C        9.16947109       4.86319187      -7.22765615
C        9.02659703       6.19106289      -7.32100198
C        7.95393478       6.82157546      -6.50454028
O        7.73573298       8.02956701      -6.52521070
H       -0.60684159       3.01676487      -3.81778729
H        0.87296200       2.89678456      -4.76345118
H        0.61936732       4.26750679      -3.63957304
H       -0.68428000       1.59402083      -2.08392735
H        2.90212149       3.93171375      -4.14309792
H        6.37943876       2.74132432      -1.92497461
H        4.98921126       1.30095082      -0.49619298
H        4.55862461       6.13758280      -3.43491237
H        5.94357081       7.56492019      -4.88210492
H        6.72139788       2.67058335      -4.75101937
H        9.47968583       2.28384614      -7.09548109
H        7.77310943       2.01347414      -6.75961892
H        8.94210971       2.22602495      -5.41991534
H        9.93994137       4.36146161      -7.80831215
C        9.85458857       7.01155333      -8.16647548
C       10.54803149       7.69871407      -8.87455954
Br      11.66927004       8.80979488     -10.01947156
C       -1.11100367      -1.86609991      -4.47506572
N       -1.41753814      -1.78671098      -3.04608951
C       -0.66639188      -1.00973556      -2.17970940
C       -0.86431097      -0.86431097      -0.86431097
C       -2.00429290      -1.60528807      -0.25905726
O       -2.27543623      -1.53342765       0.93622750
C       -2.82505805      -2.45212994      -1.16504464
C       -2.51195038      -2.52436672      -2.53813171
C       -3.32756427      -3.34513400      -3.33964123
C       -4.41742972      -4.06956766      -2.81368582
C       -4.69285608      -3.96639557      -1.44479387
C       -3.90330410      -3.16507117      -0.62321512
C       -5.24735839      -4.91514359      -3.68480748
C       -4.68782937      -5.99752446      -4.37458945
C       -5.47880411      -6.79692127      -5.19677783
C       -6.84515004      -6.51981584      -5.34103309
C       -7.45076752      -5.43868535      -4.66777887
C       -6.62416234      -4.65281315      -3.84297332
N       -8.83191020      -5.19058646      -4.84289397
C       -9.44304117      -4.05880278      -4.14420936
C       -9.56858517      -6.02293367      -5.66880027
C       -9.10769018      -7.07622299      -6.35474873
C       -7.65936459      -7.39369790      -6.22698802
O       -7.13694929      -8.33263422      -6.82092719
H       -0.24493572      -1.24670466      -4.73607018
H       -1.95269643      -1.50428195      -5.07621937
H       -0.86648085      -2.89366294      -4.76630335
H        0.15457668      -0.48502236      -2.66322250
H       -3.13724072      -3.43339251      -4.40629993
H       -5.51909314      -4.52192059      -1.00472395
H       -4.12672881      -3.09958894       0.43996270
H       -3.63106004      -6.23475818      -4.26530157
H       -5.03043268      -7.63840465      -5.72175860
H       -7.03565517      -3.80243640      -3.30490904
H      -10.51285187      -3.97687814      -4.36928305
H       -8.98089239      -3.11393626      -4.45137384
H       -9.35444990      -4.17526995      -3.05833014
H      -10.62032284      -5.75458643      -5.73480585
C       -9.94525623      -7.89279593      -7.19456522
C      -10.64671779      -8.57667577      -7.89791154
Br     -11.78092182      -9.68245162      -9.03516305
C       -4.52177078       1.42750004       1.50289848
N       -3.06912660       1.57037330       1.61083873
C       -2.20115090       0.80838185       0.84630410
C       -0.86431097       0.86431097       0.86431097
C       -0.23397168       1.84086276       1.79380379
O        0.98330218       1.97549852       1.88044004
C       -1.14195989       2.66891518       2.63135755
C       -2.53926481       2.51372590       2.52145810
C       -3.34155756       3.32713804       3.34364390
C       -2.79284579       4.26527312       4.24256429
C       -1.40000509       4.38699994       4.31704050
C       -0.57744226       3.59491682       3.51923131
C       -3.66529266       5.09840422       5.08361259
C       -4.53264512       4.51324863       6.01404953
C       -5.35543349       5.30701112       6.81005861
C       -5.32159572       6.70234909       6.68205416
C       -4.46586473       7.33482914       5.75653788
C       -3.64583024       6.50415258       4.96996599
N       -4.46435776       8.74536004       5.65567283
C       -3.57697424       9.38561802       4.68346105
C       -5.30040493       9.48247596       6.47743822
C       -6.15017673       8.99732625       7.39115892
C       -6.21367353       7.51873217       7.54764481
O       -6.96560056       6.97402956       8.35088058
H       -4.79768046       0.66813234       0.76189777
H       -4.98430480       2.36743705       1.18145589
H       -4.95599860       1.11226497       2.45818358
H       -2.70318104       0.10977805       0.18070909
H       -4.42524869       3.25544772       3.29623676
H       -0.94394577       5.09267884       5.00911307
H        0.50361186       3.69730815       3.59265876
H       -4.56376712       3.43191541       6.13543725
H       -6.02001174       4.83755657       7.53302761
H       -2.97116369       6.93658612       4.23525079
H       -3.67709312      10.47712423       4.70479572
H       -3.81768966       9.06476400       3.66374882
H       -2.52772493       9.15809951       4.90222556
H       -5.22341057      10.55701860       6.32928596
C       -6.98749447       9.83736461       8.20775830
C       -7.68874808      10.54089674       8.89166028
Br      -8.82261585      11.67844869       9.99747194
C        4.10185546      -2.74878432       0.60152952
N        2.86744702      -2.20922065       1.17367096
C        2.01387124      -1.40196155       0.44000406
C        0.86431097      -0.86431097       0.86431097
C        0.44860827      -1.15697853       2.26305143
O       -0.59173672      -0.71866806       2.74570505
C        1.34902700      -2.01699089       3.07621474
C        2.53888484      -2.52258548       2.51297849
C        3.34661212      -3.32864706       3.33708032
C        2.99838106      -3.63274255       4.66955958
C        1.80658839      -3.11071066       5.18674646
C        0.98599900      -2.30704631       4.39854507
C        3.86851293      -4.48065945       5.49813708
C        5.18118724      -4.08982960       5.78892645
C        6.00070467      -4.89554350       6.57625504
C        5.51476832      -6.10891240       7.08231825
C        4.20053408      -6.54377204       6.81292561
C        3.39808521      -5.70502378       6.01683982
N        3.74960657      -7.77633462       7.33944944
C        2.38584520      -8.21753262       7.04267550
C        4.60792143      -8.53203193       8.12036574
C        5.86955613      -8.22375828       8.44534749
C        6.41713040      -6.94398971       7.91893041
O        7.56441619      -6.57419877       8.15189574
H        4.23429310      -2.43346413      -0.44004666
H        4.08675996      -3.84446519       0.60197259
H        4.97788220      -2.39325508       1.15530986
H        2.35459531      -1.21496052      -0.57588765
H        4.27182976      -3.75142965       2.95367376
H        1.51456643      -3.31608555       6.21508570
H        0.06549213      -1.90413117       4.81673175
H        5.57158217      -3.14525701       5.41428060
H        7.01693014      -4.57517767       6.79848811
H        2.37880144      -5.99278545       5.77141371
H        2.16651020      -9.18668472       7.50581815
H        2.24109312      -8.34149978       5.96360959
H        1.65049762      -7.50495287       7.43259951
H        4.16870202      -9.45859888       8.48241424
C        6.69709883      -9.06936013       9.26615842
C        7.39016585      -9.77755167       9.95358758
Br       8.51079660     -10.92263750      11.06510239
