186
Properties=species:S:1:pos:R:3 pbc="F F F"
C        1.38489943       4.10119244      -4.69578950
N        2.02109316       3.33763067      -3.62132686
C        1.29174837       2.51525664      -2.77854390
C        1.77421500       1.77421500      -1.77421500
C        3.24105667       1.82872492      -1.52856872
O        3.78354825       1.18115431      -0.63764590
C        4.04866650       2.70815841      -2.41511979
C        3.41968768       3.44366221      -3.44081099
C        4.24150856       4.25770051      -4.24284250
C        5.63569221       4.34600880      -4.04869426
C        6.21794330       3.59643998      -3.01937430
C        5.43249560       2.78314568      -2.20566118
C        6.46055707       5.20690920      -4.90955526
C        6.24424477       6.58947123      -4.95593935
C        7.02992083       7.40096425      -5.77133020
C        8.04464758       6.83547919      -6.55558427
C        8.29637902       5.44790899      -6.54265580
C        7.48659649       4.65705979      -5.70600461
N        9.32737853       4.91626304      -7.35146114
C        9.56952664       3.47278966      -7.33344909
C       10.07937511       5.77309589      -8.13756017
C        9.93650105       7.10096691      -8.23090601
C        8.86383881       7.73147948      -7.41444430
O        8.64563701       8.93947104      -7.43511473
H        0.30306243       3.92666889      -4.72769132
H        1.78286603       3.80668858      -5.67335520
H        1.52927134       5.17741081      -4.54947706
H        0.22562402       2.50392486      -2.99383137
H        3.81202552       4.84161777      -5.05300195
H        7.28934278       3.65122834      -2.83487863
H        5.89911528       2.21085484      -1.40609700
H        5.46852863       7.04748683      -4.34481640
H        6.85347483       8.47482421      -5.79200895
H        7.63130191       3.58048738      -5.66092340
H       10.38958986       3.19375016      -8.00538512
H        8.68301345       2.92337816      -7.66952294
H        9.85201373       3.13592897      -6.32981937
H       10.84984540       5.27136563      -8.71821618
C       10.76449260       7.92145735      -9.07637951
C       11.45793551       8.60861810      -9.78446356
Br      12.57917407       9.71969890     -10.92937559
C       -1.37671438      -4.15025485      -4.65491214
N       -2.01719243      -3.36134291      -3.60151535
C       -1.28812863      -2.53728789      -2.76013239
C       -1.77421500      -1.77421500      -1.77421500
C       -3.24517941      -1.80335006      -1.54982083
O       -3.79100354      -1.13454152      -0.67680339
C       -4.05269999      -2.68395177      -2.43529294
C       -3.41973513      -3.44397376      -3.44045200
C       -4.24173174      -4.25771693      -4.24260291
C       -5.63980015      -4.32248915      -4.06810597
C       -6.22589029      -3.54904142      -3.05882589
C       -5.44044260      -2.73532929      -2.24553057
C       -6.46467359      -5.18392151      -4.92842643
C       -6.26846276      -6.57006957      -4.95112303
C       -7.05408693      -7.38200261      -5.76612574
C       -8.04851594      -6.81341074      -6.57378436
C       -8.27956851      -5.42223402      -6.58514128
C       -7.47046706      -4.63097759      -5.74821623
N       -9.29041143      -4.88760157      -7.41708971
C       -9.51111934      -3.44059944      -7.42404660
C      -10.04347661      -5.74492273      -8.20163184
C       -9.91917331      -7.07601102      -8.27318964
C       -8.86827308      -7.70998906      -7.43150045
O       -8.66793456      -8.92124755      -7.43104067
H       -0.29202786      -3.99223666      -4.67315812
H       -1.75572792      -3.86459876      -5.64258313
H       -1.53936029      -5.22190622      -4.49489270
H       -0.21888903      -2.54494392      -2.95954730
H       -3.80912983      -4.86000463      -5.03751077
H       -7.30060065      -3.58521625      -2.88963285
H       -5.91019072      -2.14427554      -1.46160086
H       -5.50882063      -7.03028057      -4.32173065
H       -6.89348280      -8.45854228      -5.76828292
H       -7.59965761      -3.55182910      -5.72122597
H      -10.31688469      -3.15958168      -8.11225876
H       -8.61159461      -2.90945251      -7.75486745
H       -9.80332307      -3.08458380      -6.42985520
H      -10.79766857      -5.24062726      -8.80113138
C      -10.74679397      -7.89676536      -9.11877011
C      -11.43992628      -8.58414713      -9.82694377
Br     -12.56066260      -9.69558530     -10.97200066
C       -5.43136963       2.32673828       2.42377346
N       -3.97886887       2.47512519       2.52605665
C       -3.11090348       1.71349920       1.76114623
C       -1.77421500       1.77421500       1.77421500
C       -1.14406212       2.75627763       2.69801056
O        0.07302521       2.89551995       2.77985371
C       -2.05201575       3.58408130       3.53584765
C       -3.44914120       3.42356710       3.43145259
C       -4.25140309       4.23704964       4.25359884
C       -3.70284850       5.18029922       5.14724755
C       -2.31019373       5.30720999       5.21635388
C       -1.48765152       4.51521426       4.41843669
C       -4.57526690       6.01331947       5.98843516
C       -5.43724605       5.42840578       6.92400352
C       -6.26002611       6.22207367       7.72011550
C       -6.23158875       7.61705984       7.58706245
C       -5.38138135       8.24927379       6.65628868
C       -4.56119089       7.41871602       5.86975397
N       -5.38523236       9.65943469       6.55043566
C       -4.50356540      10.29937274       5.57282725
C       -6.22097920      10.39650120       7.37255078
C       -7.06579157       9.91159497       8.29098743
C       -7.12349175       8.43334994       8.45292090
O       -7.87063979       7.88884552       9.26073747
H       -5.70720144       1.56377771       1.68644349
H       -5.89836653       3.26388942       2.10065387
H       -5.86109886       2.01336020       3.38170015
H       -3.61280195       1.01077019       1.09980812
H       -5.33499393       4.16136306       4.21028825
H       -1.85419704       6.01694547       5.90430724
H       -0.40671456       4.62168441       4.48766815
H       -5.46410448       4.34740657       7.04932081
H       -6.92037691       5.75284038       8.44709070
H       -3.89066215       7.85092276       5.13112776
H       -4.60747799      11.39058716       5.59065999
H       -4.74674310       9.97405643       4.55511503
H       -3.45274951      10.07634015       5.78867241
H       -6.14831947      11.47077710       7.22033064
C       -7.90319216      10.75155983       9.10757745
C       -8.60451516      11.45503041       9.79147160
Br      -9.73849513      12.59248283      10.89727060
C        5.42977069      -2.29097555       2.46113512
N        3.97804764      -2.45785067       2.54415239
C        3.11013655      -1.69745009       1.77796227
C        1.77421500      -1.77421500       1.77421500
C        1.14498614      -2.77475415       2.67861001
O       -0.07122414      -2.92943958       2.74413301
C        2.05280894      -3.60172520       3.51741056
C        3.44904373      -3.42335782       3.43175933
C        4.25120417      -4.23707813       4.25376927
C        3.70345327      -5.19747623       5.12946578
C        2.31170375      -5.34176697       5.18028687
C        1.48923635      -4.55006332       4.38200279
C        4.57576887      -6.03012614       5.97112652
C        5.41945402      -5.44630559       6.92389574
C        6.24220084      -6.23965661       7.72035784
C        6.23214402      -7.63317947       7.57038755
C        5.40074133      -8.26421119       6.62199129
C        4.58002572      -7.43406008       5.83557509
N        5.42282739      -9.67284998       6.49942533
C        4.56061976     -10.31141509       5.50373053
C        6.25754840     -10.40976652       7.32271625
C        7.08547697      -9.92593708       8.25695992
C        7.12344655      -8.44916687       8.43714917
O        7.85432317      -7.90557780       9.26032181
H        5.70514883      -1.51596667       1.73630714
H        5.91182638      -3.21854742       2.13253601
H        5.84427079      -1.98406269       3.42782573
H        3.61137013      -0.98088982       1.13112031
H        5.33424385      -4.14799122       4.22441017
H        1.85613313      -6.06510711       5.85420951
H        0.40891243      -4.67020988       4.43694481
H        5.43180413      -4.36665037       7.06237736
H        6.88816045      -5.77138717       8.46076038
H        3.92358247      -7.86528908       5.08384113
H        4.67744208     -11.40145183       5.50983123
H        4.81195237      -9.97100081       4.49296138
H        3.50470179     -10.10351284       5.70954744
H        6.19964263     -11.48292035       7.15686422
C        7.92315599     -10.76565105       9.07352242
C        8.62471216     -11.46891149       9.75739352
Br       9.75906916     -12.60602416      10.86315524
C       -0.00445707       0.01189536      -1.78238275
H       -0.66409135       0.67374010      -2.43557963
H        0.65740317      -0.63156657      -2.45157240
C       -0.90989263      -0.90692880      -0.91072765
C        0.90977584       0.90977584      -0.90977584
C       -0.00465871       1.77757030       0.00794375
H       -0.66225468       2.44313916      -0.64384735
H        0.64322798       2.43503045       0.67728295
C       -1.78241447       0.00034974      -0.00472694
H       -2.45427497      -0.65498947       0.64260836
H       -2.43311707       0.67328779      -0.65473579
C       -0.91132561       0.90220522       0.91563759
C       -0.01476271      -0.02253852       1.78660255
H       -0.67934791      -0.69751639       2.42135241
H        0.63392994       0.61504881       2.47327442
C        0.01484550      -1.77751727      -0.01636693
H        0.67870853      -2.42144646      -0.68295456
H       -0.62264859      -2.45592969       0.64226336
C        1.78714474       0.01002794       0.00389507
H        2.44202412       0.67113390       0.66197326
H        2.45385902      -0.65136977      -0.64189061
C        0.91606151      -0.90478549       0.90901405
