194
Properties=species:S:1:pos:R:3 pbc="F F F"
C        1.34226285       4.61109363      -4.19023229
N        2.01931741       3.58503996      -3.39433510
C        1.29088349       2.73810839      -2.56430219
C        1.77357303       1.77357303      -1.77357303
C        3.24440079       1.58090445      -1.77482116
O        3.79293855       0.72702523      -1.08372955
C        4.05511239       2.47254196      -2.64915573
C        3.43398862       3.46431664      -3.44303458
C        4.28516564       4.27475871      -4.23935504
C        5.69234763       4.10155778      -4.23133762
C        6.60392883       4.91249312      -5.00409394
C        7.34956064       5.60729958      -5.64725881
C        7.96235604       6.69610348      -6.58079190
C        7.64814224       7.64564888      -7.26348814
C        6.49290573       8.42247391      -7.58606374
C        6.43353600       9.77213104      -7.91943342
C        5.18846603      10.43532964      -7.84598967
C        4.08539933       9.79072465      -7.26030760
C        4.23826987       8.49720471      -6.78253141
C        5.33091178       7.76577803      -7.18390838
N        3.42293110       7.98107467      -5.72980637
C        4.25693841       8.01925314      -4.48876896
C        2.15778287       8.53116472      -5.64472248
C        1.73877782       9.64086657      -6.26992456
C        2.75813304      10.42315768      -7.05204143
O        2.53113911      11.53433502      -7.51801359
Br      -0.01052256      10.24664133      -6.13400559
C        6.25521113       3.10820688      -3.43710698
C        5.44476548       2.29662905      -2.65161484
H        0.25078849       4.54541957      -4.08015923
H        1.55562886       4.49206411      -5.25710656
H        1.63201538       5.61268759      -3.85689399
H        0.21649074       2.91291574      -2.59149957
H        3.85914730       5.04635701      -4.87568452
H        7.32838831      10.32355721      -8.19655297
H        5.10595656      11.47901977      -8.14481634
H        5.34310180       6.70791544      -6.93603521
H        3.73309549       7.54811516      -3.65322890
H        4.48600193       9.05837251      -4.20965382
H        5.21388394       7.49573225      -4.60084902
H        1.50908561       7.94821397      -4.99742672
H        7.33218387       2.95828941      -3.42303007
H        5.90107941       1.52423376      -2.03649350
C       -1.39751284      -3.91372519      -4.83235074
N       -2.04836946      -3.24893962      -3.70138339
C       -1.31832326      -2.42697568      -2.84799515
C       -1.77357303      -1.77357303      -1.77357303
C       -3.21146603      -1.93964825      -1.44901212
O       -3.73207281      -1.38834157      -0.48327895
C       -4.02190820      -2.81533122      -2.33957066
C       -3.43036816      -3.46115372      -3.44981796
C       -4.27625057      -4.28397188      -4.23905694
C       -5.64761374      -4.45521531      -3.92241398
C       -6.54533124      -5.29735464      -4.67783001
C       -7.27626506      -6.01407784      -5.31377613
C       -7.87475244      -7.01921765      -6.34528133
C       -7.55712979      -7.71897397      -7.28117549
C       -6.38567328      -8.12272507      -7.99304504
C       -6.15155038      -9.33067393      -8.64287614
C       -4.82196471      -9.68020203      -8.96761860
C       -3.75470040      -8.91534140      -8.46638979
C       -4.03285068      -7.81058344      -7.67457187
C       -5.30823370      -7.29740434      -7.67496016
N       -3.10410662      -7.32541263      -6.70429289
C       -3.59604128      -7.79633060      -5.37258864
C       -1.77415498      -7.56464743      -6.99486766
C       -1.31256601      -8.40296729      -7.93403565
C       -2.32061351      -9.24167541      -8.67104324
O       -2.00375807     -10.15737330      -9.42235634
Br       0.50121737      -8.58976345      -8.28157829
C       -6.18387859      -3.79410171      -2.82254470
C       -5.37958340      -2.97782858      -2.03559738
H       -0.34422887      -3.61252245      -4.91961597
H       -1.87713999      -3.64805451      -5.77960502
H       -1.40359183      -5.00007485      -4.69793027
H       -0.26818986      -2.33276335      -3.11995284
H       -3.87497538      -4.79647048      -5.10974298
H       -6.96483995     -10.01598683      -8.86767172
H       -4.61581701     -10.59779529      -9.51618037
H       -5.46221999      -6.33988985      -7.18494261
H       -2.98803292      -7.38200943      -4.56439720
H       -3.55007024      -8.89366826      -5.31028976
H       -4.63380154      -7.50396081      -5.17270285
H       -1.11327831      -6.97830540      -6.36314260
H       -7.23485296      -3.91013761      -2.56851278
H       -5.81491029      -2.46774014      -1.17915624
C       -5.24043604       1.69683222       3.20632051
N       -3.89553103       2.19424702       2.90891442
C       -3.02715029       1.45372872       2.11241507
C       -1.77357303       1.77357303       1.77357303
C       -1.24379508       3.05447452       2.30185680
O       -0.10513712       3.44256891       2.05598730
C       -2.14529111       3.87074038       3.16077859
C       -3.45571099       3.42914023       3.45648861
C       -4.24221256       4.26682925       4.29023759
C       -3.73291481       5.48465544       4.80767278
C       -4.48196600       6.36137132       5.67717858
C       -5.11862146       7.07424105       6.41125652
C       -6.22094702       7.69465451       7.32364989
C       -7.32723670       7.46874990       7.76129266
C       -8.30522210       6.42684645       7.76937483
C       -9.23217920       6.12932898       8.76359228
C       -9.85467618       4.86132784       8.75378132
C       -9.39638200       3.86322802       7.87682157
C       -8.34767092       4.15402304       7.01631203
C       -8.01147098       5.46933435       6.79979286
N       -7.47513232       3.13788490       6.52079493
C       -6.21159185       3.23850819       7.31486048
C       -8.04099762       1.88162439       6.41104806
C       -9.20588997       1.49371348       6.94996550
C       -9.91702379       2.47297893       7.84332944
O      -10.89273283       2.16966261       8.52109227
Br      -9.90060496      -0.20547827       6.67499768
C       -2.43891619       5.87813503       4.48347378
C       -1.64868254       5.07971462       3.66461221
H       -5.44513407       0.75768457       2.67354865
H       -6.00760203       2.40947777       2.88771973
H       -5.34561971       1.48155025       4.27442700
H       -3.45345650       0.52102957       1.74641999
H       -5.26011631       3.97957856       4.54149396
H       -9.45271901       6.83776103       9.55801846
H      -10.61656255       4.62005110       9.49317902
H       -7.30636592       5.68026676       6.00041977
H       -5.45333794       2.55290513       6.92819649
H       -6.39760078       2.98693218       8.36949530
H       -5.77293143       4.24326381       7.29426996
H       -7.42425540       1.21388914       5.81658176
H       -2.03439963       6.81166751       4.86743622
H       -0.63895946       5.40231888       3.42052833
C        5.21319071      -1.66203940       3.26835865
N        3.88262452      -2.17736595       2.93870200
C        3.01525312      -1.43807634       2.13996462
C        1.77357303      -1.77357303       1.77357303
C        1.25739278      -3.07258224       2.27015138
O        0.13018924      -3.47595619       1.99754790
C        2.15812346      -3.88812326       3.13056337
C        3.45522888      -3.42916207       3.45694889
C        4.24181438      -4.26766875       4.28979626
C        3.74518361      -5.50307566       4.77698376
C        4.49439880      -6.38187700       5.64424010
C        5.13070999      -7.09644170       6.37696734
C        6.22782774      -7.71365262       7.29777107
C        7.32220975      -7.47636222       7.75870729
C        8.28137963      -6.41796990       7.80209385
C        9.18557455      -6.12201313       8.81751278
C        9.78568707      -4.84343784       8.84066043
C        9.32512828      -3.83811894       7.97318437
C        8.29678069      -4.13182374       7.08940156
C        7.98763475      -5.44874091       6.84422254
N        7.41517501      -3.12237916       6.59625798
C        6.14003323      -3.25887600       7.36605128
C        7.96061228      -1.85475982       6.51829796
C        9.10896645      -1.45628320       7.08431930
C        9.82167106      -2.43868071       7.97298038
O       10.77998538      -2.13050051       8.67300182
Br       9.77826542       0.25927917       6.85113812
C        2.46413946      -5.91314394       4.42324160
C        1.67425759      -5.11422111       3.60453067
H        5.41049586      -0.71023452       2.75563692
H        5.99821313      -2.35555159       2.95103480
H        5.29603328      -1.46383881       4.34172488
H        3.43132192      -0.49181867       1.79776547
H        5.24998589      -3.96729554       4.56390741
H        9.40477313      -6.84041783       9.60330754
H       10.53027009      -4.60207120       9.59745139
H        7.30031995      -5.65773058       6.02900192
H        5.37662046      -2.57980458       6.97801452
H        6.30326970      -3.02275404       8.42800453
H        5.71958501      -4.27056390       7.32031629
H        7.34258461      -1.18743305       5.92470864
H        2.06955695      -6.86017394       4.78377247
H        0.67476349      -5.44992181       3.33712138
C       -0.00445707       0.01189536      -1.78238275
H       -0.66409135       0.67374010      -2.43557963
H        0.65740317      -0.63156657      -2.45157240
C       -0.90989263      -0.90692880      -0.91072765
C        0.90977584       0.90977584      -0.90977584
C       -0.00465871       1.77757030       0.00794375
H       -0.66225468       2.44313916      -0.64384735
H        0.64322798       2.43503045       0.67728295
C       -1.78241447       0.00034974      -0.00472694
H       -2.45427497      -0.65498947       0.64260836
H       -2.43311707       0.67328779      -0.65473579
C       -0.91132561       0.90220522       0.91563759
C       -0.01476271      -0.02253852       1.78660255
H       -0.67934791      -0.69751639       2.42135241
H        0.63392994       0.61504881       2.47327442
C        0.01484550      -1.77751727      -0.01636693
H        0.67870853      -2.42144646      -0.68295456
H       -0.62264859      -2.45592969       0.64226336
C        1.78714474       0.01002794       0.00389507
H        2.44202412       0.67113390       0.66197326
H        2.45385902      -0.65136977      -0.64189061
C        0.91606151      -0.90478549       0.90901405
