178
Properties=species:S:1:pos:R:3 pbc="F F F"
C        1.79270853       1.79270853      -1.79270853
C        1.55068373       3.16054714      -1.85346225
C        2.35790247       3.95809161      -2.65919769
C        3.40120209       3.38023259      -3.40091546
C        3.66076167       1.99431643      -3.35331378
C        2.83212239       1.21309907      -2.52934593
N        4.71898961       1.45920954      -4.11983193
C        4.95498729       0.01474578      -4.09176401
C        5.44462763       2.29556439      -4.95127898
C        5.30526521       3.62357208      -5.08797496
C        4.24236091       4.26018911      -4.25283845
O        4.05399899       5.47493229      -4.25584819
C        6.11486922       4.42051097      -5.99659476
C        6.73245109       5.55486645      -5.63046601
N        7.51420712       6.37630233      -6.42497382
C        8.10705691       7.60848412      -5.90208402
C        7.66426525       6.07348018      -7.79583038
C        7.06646117       4.90707408      -8.31825128
C        6.28937032       4.01132839      -7.42326432
O        5.81210725       2.96712017      -7.86277876
C        7.18489176       4.56583928      -9.67540753
C        7.90424723       5.38520031     -10.54016273
C        8.50187782       6.53803710     -10.04270401
C        8.38713064       6.88104850      -8.69075840
Br       9.48158408       7.65850821     -11.21067439
H        0.74265903       3.61274517      -1.28444110
H        2.17348571       5.02925042      -2.71401661
H        2.97832131       0.14053761      -2.44949708
H        5.81713069      -0.26560768      -4.70821476
H        4.08867625      -0.53022449      -4.48290015
H        5.17402156      -0.32636820      -3.07367889
H        6.19556625       1.76874387      -5.53768680
H        6.63842517       5.91380937      -4.60692174
H        7.93902596       7.71143787      -4.82361496
H        7.66542068       8.48876016      -6.38219095
H        9.19257953       7.61480687      -6.05172640
H        6.71216411       3.66294972     -10.05744004
H        7.98957672       5.11787574     -11.58996158
H        8.86992370       7.79269986      -8.35235842
C       -1.79270853      -1.79270853      -1.79270853
C       -2.88377333      -1.23289645      -2.44802335
C       -3.68318938      -2.04226411      -3.24973828
C       -3.38610413      -3.40794370      -3.38830230
C       -2.28451907      -3.99396772      -2.72990509
C       -1.49251656      -3.15294510      -1.92910573
N       -2.02827716      -5.37238400      -2.89736992
C       -0.90494320      -5.97709781      -2.17945608
C       -2.89826250      -6.13663601      -3.65657249
C       -3.97404370      -5.70767116      -4.33509740
C       -4.26153902      -4.24391085      -4.24993859
O       -5.19011447      -3.72697570      -4.86768930
C       -4.83599588      -6.59192238      -5.10405669
C       -5.21167347      -6.33840237      -6.36770772
N       -6.02956495      -7.11608878      -7.16982954
C       -6.38589601      -6.70330068      -8.52842835
C       -6.61391154      -8.28477996      -6.63488431
C       -6.30573197      -8.67237792      -5.31367665
C       -5.37115538      -7.85070205      -4.50210559
O       -5.05862006      -8.21353417      -3.36985195
C       -6.86473268      -9.82444461      -4.73696129
C       -7.74534833     -10.61413167      -5.47013027
C       -8.05939944     -10.24868187      -6.77453761
C       -7.50367181      -9.10201683      -7.35324889
Br      -9.25593007     -11.31571846      -7.77911815
H       -3.12053885      -0.17751557      -2.34179087
H       -4.54040013      -1.61219558      -3.76415703
H       -0.63145541      -3.54198533      -1.39491525
H       -0.80191611      -7.04284454      -2.41497712
H       -1.04650973      -5.89905741      -1.09578477
H        0.04122066      -5.50142343      -2.46112949
H       -2.63808378      -7.19372851      -3.67018464
H       -4.86392729      -5.43296727      -6.86226171
H       -5.84648241      -5.79771376      -8.82988262
H       -7.45603494      -6.47966200      -8.60067487
H       -6.12357885      -7.48037522      -9.25515873
H       -6.61562561     -10.10237963      -3.71454864
H       -8.17743361     -11.50251242      -5.01746802
H       -7.78271816      -8.85846287      -8.37380095
C       -1.79270853       1.79270853       1.79270853
C       -2.88143279       1.23206380       2.45119654
C       -3.68086358       2.04143585       3.25289235
C       -3.38614195       3.40794785       3.38826034
C       -2.28695384       3.99481870       2.72661934
C       -1.49487388       3.15377933       1.92591418
N       -2.03304440       5.37404451       2.89094217
C       -0.91225779       5.97953230       2.16970700
C       -2.90303905       6.13808367       3.65034829
C       -3.97668703       5.70835972       4.33176550
C       -4.26152738       4.24388859       4.24997250
O       -5.18791758       3.72636049       4.87050140
C       -4.83886078       6.59243187       5.10068230
C       -5.21162134       6.34062339       6.36553883
N       -6.02946573       7.11827959       7.16773795
C       -6.38239084       6.70742356       8.52781064
C       -6.61708742       8.28481415       6.63167424
C       -6.31219329       8.67045961       5.30913364
C       -5.37759770       7.84902009       4.49734523
O       -5.06793716       8.21027188       3.36379713
C       -6.87451744       9.82033803       4.73128310
C       -7.75524134      10.60974161       5.46462732
C       -8.06608189      10.24620061       6.77033642
C       -7.50703737       9.10172138       7.35017879
Br      -9.26273202      11.31286821       7.77516644
H       -3.11637007       0.17602748       2.34744774
H       -4.53625506       1.61071226       3.76978542
H       -0.63559102       3.54344411       1.38932087
H       -0.81083002       7.04592636       2.40298139
H       -1.05575548       5.89913431       1.08646211
H        0.03535930       5.50621958       2.45047198
H       -2.64486988       7.19569830       3.66142874
H       -4.86118351       5.43681166       6.86116111
H       -5.84065698       5.80345653       8.82996528
H       -7.45195654       6.48186887       8.60254639
H       -6.12017424       7.48639802       9.25254054
H       -6.62791048      10.09678260       3.70786079
H       -8.18990465      11.49641767       5.01109173
H       -7.78365325       8.85959663       8.37173209
C        1.79270853      -1.79270853       1.79270853
C        1.57251880      -3.16514731       1.82702701
C        2.37960083      -3.96266973       2.63292121
C        3.40085780      -3.38023353       3.40125880
C        3.63806139      -1.98965397       3.38067652
C        2.81013484      -1.20850143       2.55593112
N        4.67454814      -1.45012661       4.17335633
C        4.88690214      -0.00172618       4.17286876
C        5.40029667      -2.28821217       5.00296216
C        5.28083534      -3.62041418       5.11556273
C        4.24248609      -4.26035862       4.25254375
O        4.07434205      -5.47790427       4.23253315
C        6.08860773      -4.41900435       6.02436287
C        6.73089267      -5.53684806       5.65004283
N        7.51310032      -6.35848534       6.44389762
C        8.13485405      -7.57192472       5.91084628
C        7.63563767      -6.07610317       7.82183496
C        7.01003331      -4.92849486       8.35325837
C        6.23289770      -4.03081946       7.46024585
O        5.73119228      -3.00202279       7.90879111
C        7.10053675      -4.60800024       9.71760158
C        7.81917639      -5.42975377      10.58068011
C        8.44397286      -6.56421474      10.07443132
C        8.35709610      -6.88651189       8.71532955
Br       9.42293994      -7.68778059      11.24004615
H        0.78155441      -3.62097944       1.23731145
H        2.21216323      -5.03746777       2.66712174
H        2.93975140      -0.13251018       2.49609442
H        5.73405393       0.28240478       4.80808862
H        4.00535502       0.52240516       4.55840204
H        5.11686549       0.35982335       3.16429013
H        6.13266406      -1.75900171       5.61033116
H        6.65962088      -5.88019845       4.61933695
H        7.98623630      -7.65965307       4.82818942
H        7.70012863      -8.46718024       6.36906294
H        9.21773651      -7.56296659       6.07840970
H        6.60665829      -3.71945286      10.10644273
H        7.88284907      -5.17857604      11.63598893
H        8.86046880      -7.78438006       8.37013312
C       -0.00445707       0.01189536      -1.78238275
H       -0.66409135       0.67374010      -2.43557963
H        0.65740317      -0.63156657      -2.45157240
C       -0.90989263      -0.90692880      -0.91072765
C        0.90977584       0.90977584      -0.90977584
C       -0.00465871       1.77757030       0.00794375
H       -0.66225468       2.44313916      -0.64384735
H        0.64322798       2.43503045       0.67728295
C       -1.78241447       0.00034974      -0.00472694
H       -2.45427497      -0.65498947       0.64260836
H       -2.43311707       0.67328779      -0.65473579
C       -0.91132561       0.90220522       0.91563759
C       -0.01476271      -0.02253852       1.78660255
H       -0.67934791      -0.69751639       2.42135241
H        0.63392994       0.61504881       2.47327442
C        0.01484550      -1.77751727      -0.01636693
H        0.67870853      -2.42144646      -0.68295456
H       -0.62264859      -2.45592969       0.64226336
C        1.78714474       0.01002794       0.00389507
H        2.44202412       0.67113390       0.66197326
H        2.45385902      -0.65136977      -0.64189061
C        0.91606151      -0.90478549       0.90901405
