157
Properties=species:S:1:pos:R:3 pbc="F F F"
C        0.00000000       0.00000000       0.00000000
C        0.88280451       0.88280451      -0.88280451
C        0.64077971       2.25064312      -0.94355823
C        1.44799845       3.04818758      -1.74929366
C        2.49129806       2.47032856      -2.49101144
C        2.75085764       1.08441241      -2.44340976
C        1.92221836       0.30319505      -1.61944191
N        3.80908559       0.54930551      -3.20992790
C        4.04508327      -0.89515824      -3.18185999
C        4.53472360       1.38566037      -4.04137496
C        4.39536119       2.71366805      -4.17807094
C        3.33245688       3.35028509      -3.34293442
O        3.14409497       4.56502827      -3.34594417
C        5.20496520       3.51060695      -5.08669073
C        5.82254707       4.64496243      -4.72056199
N        6.60430310       5.46639831      -5.51506979
C        7.19715288       6.69858009      -4.99218000
C        6.75436123       5.16357615      -6.88592636
C        6.15655715       3.99717006      -7.40834726
C        5.37946629       3.10142436      -6.51336029
O        4.90220322       2.05721614      -6.95287474
C        6.27498774       3.65593526      -8.76550351
C        6.99434321       4.47529629      -9.63025871
C        7.59197379       5.62813307      -9.13279998
C        7.47722661       5.97114447      -7.78085438
Br       8.57168006       6.74860418     -10.30077036
H       -0.16724499       2.70284114      -0.37453707
H        1.26358169       4.11934639      -1.80411259
H        2.06841729      -0.76936641      -1.53959305
H        4.90722666      -1.17551170      -3.79831074
H        3.17877222      -1.44012852      -3.57299612
H        4.26411754      -1.23627222      -2.16377487
H        5.28566223       0.85883984      -4.62778278
H        5.72852115       5.00390534      -3.69701771
H        7.02912194       6.80153384      -3.91371094
H        6.75551666       7.57885614      -5.47228693
H        8.28267550       6.70490285      -5.14182238
H        5.80226009       2.75304570      -9.14753602
H        7.07967270       4.20797172     -10.68005755
H        7.96001967       6.88279584      -7.44245439
C       -0.88280451      -0.88280451      -0.88280451
C       -0.70175043      -0.87189434      -2.26133629
C       -1.50893040      -1.67767534      -3.05887396
C       -2.49406787      -2.48775585      -2.47081434
C       -2.69356406      -2.51075160      -1.07436414
C       -1.86258158      -1.68953792      -0.29273583
N       -3.69920436      -3.33908033      -0.53003432
C       -3.92222248      -3.32626835       0.91670582
C       -4.51185401      -4.06825547      -1.38164945
C       -4.42814322      -4.13953953      -2.71941743
C       -3.34007487      -3.33398038      -3.35162115
O       -3.13418213      -3.35759554      -4.56328973
C       -5.33607952      -4.93258130      -3.53360205
C       -4.91989444      -5.78152369      -4.48665335
N       -5.70830730      -6.56820718      -5.30925672
C       -5.12090724      -7.43256188      -6.33444385
C       -7.11388344      -6.46335040      -5.22662990
C       -7.69041555      -5.60547761      -4.26618131
C       -6.81568847      -4.82525051      -3.35331197
O       -7.31426150      -4.11778471      -2.48024789
C       -9.08282080      -5.46522689      -4.14837881
C       -9.92932647      -6.18053204      -4.99003970
C       -9.37906338      -7.03228694      -5.94155653
C       -7.99210709      -7.17567310      -6.06144527
Br     -10.52176439      -8.00867622      -7.09061399
H        0.05661174      -0.24450073      -2.72224423
H       -1.37507813      -1.67306167      -4.13890087
H       -1.96571439      -1.66030819       0.78737866
H       -4.71106658      -4.02887378       1.20991466
H       -4.23456595      -2.33203512       1.25496124
H       -3.01713605      -3.62945454       1.45497040
H       -5.28825357      -4.62473696      -0.85929432
H       -3.85418953      -5.90007348      -4.67518120
H       -4.02625283      -7.44322942      -6.27488447
H       -5.38529189      -7.08282455      -7.33854330
H       -5.45134019      -8.46972311      -6.20833743
H       -9.50560413      -4.79469187      -3.40254580
H      -11.00580811      -6.06534843      -4.89654544
H       -7.61228982      -7.85116982      -6.82181026
C       -0.88280451       0.88280451       0.88280451
C       -2.26087607       0.69808242       0.87602257
C       -3.05841750       1.50528415       1.68177804
C       -2.47083117       2.49411256       2.48769433
C       -1.07485823       2.69735596       2.50646562
C       -0.29320377       1.86626901       1.68538254
N       -0.53100748       3.70661990       3.33069163
C        0.91509820       3.93342305       3.31346017
C       -1.38284278       4.51894563       4.05997052
C       -2.72019152       4.43189142       4.13501725
C       -3.35163716       3.34002824       3.33401099
O       -4.56268975       3.13099973       3.36137792
C       -3.53468020       5.33977109       4.92781159
C       -4.48438101       4.92331993       5.78037054
N       -5.30698871       5.71163792       6.56714457
C       -6.32833081       5.12382328       7.43575888
C       -5.22836100       7.11714479       6.45835794
C       -4.27171110       7.69393775       5.59642562
C       -3.35859247       6.81956161       4.81609686
O       -2.48872287       7.31856351       4.10500773
C       -4.15796656       9.08627301       5.45218694
C       -4.99997395       9.93244407       6.16748018
C       -5.94777787       9.38192734       7.02320163
C       -6.06361479       7.99504380       7.17056687
Br      -7.09727448      10.52417122       7.99960891
H       -2.72142963      -0.06315279       0.25185638
H       -4.13809464       1.36856849       1.68037754
H        0.78655290       1.97217604       1.65302078
H        1.20807175       4.72489627       4.01320117
H        1.24989870       4.24402510       2.31751344
H        1.45655613       3.03056715       3.61760916
H       -0.86107749       5.29819262       4.61301475
H       -4.66977274       3.85743850       5.90223297
H       -6.26584529       4.02936205       7.44915937
H       -7.33404684       5.38462846       7.08798443
H       -6.20036127       5.45733311       8.47170635
H       -3.41502893       9.50924753       4.77856534
H       -4.90963479      11.00886011       6.04920708
H       -6.82118496       7.61500979       7.84907515
C        0.88280451      -0.88280451       0.88280451
C        1.60837957      -0.30690962       1.91969186
C        2.41006909      -1.11628310       2.71912751
C        2.48179961      -2.49726110       2.47357735
C        1.75432037      -3.09909822       1.42526122
C        0.95057744      -2.25874940       0.63552848
N        1.86164128      -4.49128165       1.21539608
C        1.13174882      -5.09873740       0.10129880
C        2.72598139      -5.23146733       2.00431022
C        3.46864158      -4.78782170       3.03063691
C        3.34922139      -3.33190394       3.34455107
O        3.94261565      -2.82054406       4.29190770
C        4.35672412      -5.64480522       3.80073354
C        4.36717896      -5.67814592       5.14274661
N        5.17727484      -6.45400704       5.95448932
C        5.10499199      -6.36875245       7.41416853
C        6.16395706      -7.27439271       5.36551396
C        6.26631126      -7.33613269       3.95963051
C        5.33675239      -6.54146462       3.11603393
O        5.38764376      -6.63347097       1.89117938
C        7.23359221      -8.13477357       3.32806072
C        8.12053633      -8.88926099       4.09010087
C        8.03343747      -8.84233153       5.47713785
C        7.07029503      -8.04860186       6.11032858
Br       9.23511549      -9.86425186       6.52168725
H        1.55948993       0.76159722       2.11224051
H        2.98293343      -0.67283619       3.53127106
H        0.36694107      -2.65910795      -0.18740510
H        1.28103727      -6.18422305       0.06476537
H        1.47488803      -4.69409539      -0.85734359
H        0.05319197      -4.93442418       0.20400403
H        2.77327544      -6.28084993       1.71815948
H        3.68387657      -5.04232601       5.70324162
H        4.28356403      -5.72019695       7.74060574
H        6.02939160      -5.95005313       7.82721500
H        4.91959928      -7.35461495       7.85518649
H        7.29673435      -8.16422153       2.24188592
H        8.86909199      -9.50267903       3.59593095
H        7.04514277      -8.04441304       7.19571409
