165
Properties=species:S:1:pos:R:3 pbc="F F F"
C        0.00000000       0.00000000       0.00000000
C        0.88280451       0.88280451      -0.88280451
C        0.64077971       2.25064312      -0.94355823
C        1.44799845       3.04818758      -1.74929366
C        2.49129806       2.47032856      -2.49101144
C        2.75085764       1.08441241      -2.44340976
C        1.92221836       0.30319505      -1.61944191
N        3.80908559       0.54930551      -3.20992790
C        4.04508327      -0.89515824      -3.18185999
C        4.53472360       1.38566037      -4.04137496
C        4.39536119       2.71366805      -4.17807094
C        3.33245688       3.35028509      -3.34293442
O        3.14409497       4.56502827      -3.34594417
C        5.20496520       3.51060695      -5.08669073
C        5.82254707       4.64496243      -4.72056199
N        6.60430310       5.46639831      -5.51506979
C        7.19715288       6.69858009      -4.99218000
C        6.75436123       5.16357615      -6.88592636
C        6.15655715       3.99717006      -7.40834726
C        5.37946629       3.10142436      -6.51336029
O        4.90220322       2.05721614      -6.95287474
C        6.27498774       3.65593526      -8.76550351
C        6.99434321       4.47529629      -9.63025871
C        7.59197379       5.62813307      -9.13279998
C        7.47722661       5.97114447      -7.78085438
H       -0.16724499       2.70284114      -0.37453707
H        1.26358169       4.11934639      -1.80411259
H        2.06841729      -0.76936641      -1.53959305
H        4.90722666      -1.17551170      -3.79831074
H        3.17877222      -1.44012852      -3.57299612
H        4.26411754      -1.23627222      -2.16377487
H        5.28566223       0.85883984      -4.62778278
H        5.72852115       5.00390534      -3.69701771
H        7.02912194       6.80153384      -3.91371094
H        6.75551666       7.57885614      -5.47228693
H        8.28267550       6.70490285      -5.14182238
H        5.80226009       2.75304570      -9.14753602
H        7.07967270       4.20797172     -10.68005755
H        7.96001967       6.88279584      -7.44245439
C        8.33765149       6.48095024     -10.02176997
C        8.96215657       7.19518462     -10.76628234
Br       9.97192845       8.35004120     -11.97009587
C       -0.88280451      -0.88280451      -0.88280451
C       -2.03314693      -0.34896341      -1.45287071
C       -2.83218849      -1.15819082      -2.25510039
C       -2.47522930      -2.49787342      -2.47953534
C       -1.31292955      -3.05746084      -1.90828942
C       -0.52290393      -2.21700345      -1.10494793
N       -0.99758620      -4.41054721      -2.16018559
C        0.19044926      -4.99059668      -1.53163759
C       -1.86703153      -5.18058296      -2.91414444
C       -2.99683920      -4.77529408      -3.51496690
C       -3.35190443      -3.33462957      -3.33914240
O       -4.33608395      -2.83691863      -3.88206482
C       -3.85281668      -5.66411060      -4.28533559
C       -4.30624188      -5.36808313      -5.51374648
N       -5.12530712      -6.14665845      -6.31380563
C       -5.57232314      -5.68604533      -7.62954451
C       -5.62203196      -7.36947488      -5.81235690
C       -5.22625080      -7.80562416      -4.53019951
C       -4.29249746      -6.97753815      -3.72421534
O       -3.90349061      -7.37936377      -2.62943973
C       -5.69633672      -9.01260994      -3.98747984
C       -6.57375778      -9.80986500      -4.71627542
C       -6.97341487      -9.39694864      -5.98254334
C       -6.50642938      -8.19542246      -6.52737363
H       -2.31620796       0.68599368      -1.27991894
H       -3.73546355      -0.74852314      -2.70305398
H        0.38320620      -2.58653139      -0.63531874
H        0.33387081      -6.03646267      -1.82743383
H        0.10207708      -4.97404605      -0.43967086
H        1.09575624      -4.45264890      -1.83472753
H       -1.55568673      -6.22062701      -2.99597111
H       -4.03029807      -4.42222485      -5.97692129
H       -5.09511510      -4.73960688      -7.90964474
H       -6.65457010      -5.51539503      -7.63669460
H       -5.31008279      -6.41123479      -8.40808316
H       -5.38056126      -9.32761777      -2.99466276
H       -6.93686067     -10.74104383      -4.28979747
H       -6.85025928      -7.91636513      -7.51864549
C       -7.88137820     -10.21661637      -6.74237714
C       -8.64179749     -10.90308809      -7.37873794
Br      -9.87133117     -12.01305481      -8.40767954
C       -0.88280451       0.88280451       0.88280451
C       -2.26589759       0.76227222       0.80681124
C       -3.06339202       1.56909242       1.61299525
C       -2.47058272       2.49332228       2.48873305
C       -1.06936131       2.63098492       2.57833357
C       -0.28806736       1.80173558       1.75505238
N       -0.52014222       3.57681785       3.47135893
C        0.93380722       3.73726781       3.52832443
C       -1.36806951       4.39462323       4.19906619
C       -2.70999131       4.36607821       4.21103066
C       -3.35133621       3.34082839       3.33351180
O       -4.57039489       3.18683681       3.29783571
C       -3.51936574       5.27472361       5.00817352
C       -4.52477547       4.86533169       5.79796432
N       -5.34724224       5.65529811       6.58323085
C       -6.43243695       5.07748599       7.37799003
C       -5.20184058       7.05911396       6.54290919
C       -4.18199998       7.62861410       5.75146038
C       -3.27329482       6.74830905       4.97264708
O       -2.35043740       7.23753067       4.32432604
C       -4.00049923       9.01922845       5.67669882
C       -4.83648295       9.87097347       6.39244178
C       -5.84605170       9.32756201       7.17929314
C       -6.02954450       7.94234698       7.25733399
H       -2.73028274       0.05131053       0.12853995
H       -4.14683089       1.48247885       1.55773093
H        0.79564971       1.85908697       1.77520667
H        1.22880223       4.48280027       4.27602766
H        1.32751326       4.07568366       2.56346943
H        1.42036973       2.79789379       3.81409612
H       -0.83852565       5.12387211       4.80988710
H       -4.76236431       3.80479495       5.86228495
H       -6.41891296       3.98178129       7.34367246
H       -7.40858798       5.39943517       6.99863658
H       -6.33778163       5.35878021       8.43283889
H       -3.20939181       9.43677703       5.05667296
H       -4.69345462      10.94624621       6.32800114
H       -6.83358816       7.56811068       7.88357107
C       -6.71513207      10.20276612       7.92247352
C       -7.44298688      10.93574956       8.54488709
Br      -8.61986654      12.12092179       9.55127719
C        0.88280451      -0.88280451       0.88280451
C        0.29892360      -1.88003036       1.65602710
C        1.10835644      -2.67970054       2.45742272
C        2.49748885      -2.47405255       2.48109666
C        3.10756697      -1.46624907       1.70486376
C        2.26683921      -0.67539612       0.90261999
N        4.50792372      -1.29554810       1.76484719
C        5.12547457      -0.22226290       0.98404754
C        5.25043526      -2.08077223       2.63055145
C        4.79951317      -3.07094706       3.41663996
C        3.33205652      -3.34403117       3.34958870
O        2.81128290      -4.25764129       3.98614322
C        5.65998983      -3.84020755       4.30206549
C        5.65419970      -5.18172858       4.35214320
N        6.43004291      -5.99243383       5.16329446
C        6.29980314      -7.45035761       5.13775223
C        7.29685666      -5.39982783       6.10717924
C        7.40293267      -3.99405711       6.16508469
C        6.60561971      -3.15446607       5.23416517
O        6.73506064      -1.93199066       5.24524280
C        8.24868495      -3.35880640       7.08893516
C        9.00695889      -4.11694932       7.97599000
C        8.91669543      -5.50389044       7.93232098
C        8.07592762      -6.14078772       7.01251013
H       -0.77576767      -2.04150898       1.64439191
H        0.65878558      -3.46087602       3.06737907
H        2.67335099       0.11754732       0.28284025
H        6.21558529      -0.21422561       1.10021479
H        4.75973368       0.75785043       1.30975657
H        4.92565203      -0.35158371      -0.08561556
H        6.30872029      -1.82524293       2.63832163
H        4.98180479      -5.74255397       3.70508545
H        5.61737879      -7.78100503       4.34598289
H        5.89731812      -7.82321469       6.08612692
H        7.26622474      -7.92626234       4.93691365
H        8.31192058      -2.27263442       7.11828681
H        9.65699842      -3.61979549       8.69090806
H        8.03910148      -7.22581964       7.02034878
C        9.69813770      -6.29488786       8.84734615
C       10.35259559      -6.95734821       9.61367972
Br      11.41079866      -8.02849056      10.85277630
