186
Properties=species:S:1:pos:R:3 pbc="F F F"
C        1.79270853       1.79270853      -1.79270853
C        1.55068373       3.16054714      -1.85346225
C        2.35790247       3.95809161      -2.65919769
C        3.40120209       3.38023259      -3.40091546
C        3.66076167       1.99431643      -3.35331378
C        2.83212239       1.21309907      -2.52934593
N        4.71898961       1.45920954      -4.11983193
C        4.95498729       0.01474578      -4.09176401
C        5.44462763       2.29556439      -4.95127898
C        5.30526521       3.62357208      -5.08797496
C        4.24236091       4.26018911      -4.25283845
O        4.05399899       5.47493229      -4.25584819
C        6.11486922       4.42051097      -5.99659476
C        6.73245109       5.55486645      -5.63046601
N        7.51420712       6.37630233      -6.42497382
C        8.10705691       7.60848412      -5.90208402
C        7.66426525       6.07348018      -7.79583038
C        7.06646117       4.90707408      -8.31825128
C        6.28937032       4.01132839      -7.42326432
O        5.81210725       2.96712017      -7.86277876
C        7.18489176       4.56583928      -9.67540753
C        7.90424723       5.38520031     -10.54016273
C        8.50187782       6.53803710     -10.04270401
C        8.38713064       6.88104850      -8.69075840
H        0.74265903       3.61274517      -1.28444110
H        2.17348571       5.02925042      -2.71401661
H        2.97832131       0.14053761      -2.44949708
H        5.81713069      -0.26560768      -4.70821476
H        4.08867625      -0.53022449      -4.48290015
H        5.17402156      -0.32636820      -3.07367889
H        6.19556625       1.76874387      -5.53768680
H        6.63842517       5.91380937      -4.60692174
H        7.93902596       7.71143787      -4.82361496
H        7.66542068       8.48876016      -6.38219095
H        9.19257953       7.61480687      -6.05172640
H        6.71216411       3.66294972     -10.05744004
H        7.98957672       5.11787574     -11.58996158
H        8.86992370       7.79269986      -8.35235842
C        9.24755552       7.39085427     -10.93167400
C        9.87206059       8.10508864     -11.67618636
Br      10.88183248       9.25994523     -12.87999989
C       -1.79270853      -1.79270853      -1.79270853
C       -2.94638603      -1.26063881      -2.35766828
C       -3.74540645      -2.06985648      -3.15992884
C       -3.38507787      -3.40776421      -3.38950805
C       -2.21936166      -3.96554728      -2.82348293
C       -1.42944824      -3.12513066      -2.01998850
N       -1.90069133      -5.31690187      -3.08043787
C       -0.70900381      -5.89524211      -2.45725117
C       -2.77008695      -6.08728800      -3.83409605
C       -3.90293425      -5.68361392      -4.43026408
C       -4.26182199      -4.24457237      -4.24899411
O       -5.24914641      -3.74821028      -4.78742279
C       -4.75855252      -6.57268919      -5.20073324
C       -5.21659777      -6.27432350      -6.42686229
N       -6.03572785      -7.05295671      -7.22679872
C       -6.48812706      -6.58972318      -8.53977480
C       -6.52722591      -8.27878694      -6.72756297
C       -6.12623704      -8.71761074      -5.44793877
C       -5.19255175      -7.88913713      -4.64227415
O       -4.79900972      -8.29309113      -3.54990533
C       -6.59101906      -9.92765449      -4.90746503
C       -7.46823160     -10.72536002      -5.63601865
C       -7.87297784     -10.30982877      -6.89981231
C       -7.41128610      -9.10524759      -7.44240385
H       -3.23205130      -0.22707372      -2.18072028
H       -4.65127248      -1.66157866      -3.60390161
H       -0.52080283      -3.49332609      -1.55422708
H       -0.56331659      -6.93976811      -2.75665307
H       -0.79411095      -5.88226413      -1.36497682
H        0.19374710      -5.35363435      -2.76144501
H       -2.45584621      -7.12612991      -3.92002081
H       -4.94492447      -5.32623481      -6.88799700
H       -6.01463747      -5.64099744      -8.81844388
H       -7.57090217      -6.42233762      -8.54313201
H       -6.22605771      -7.31175418      -9.32130091
H       -6.27127992     -10.24470525      -3.91656870
H       -7.82721898     -11.65892290      -5.21127216
H       -7.75896595      -8.82423683      -8.43177919
C       -8.78075875     -11.12994555      -7.65937948
C       -9.54102527     -11.81679335      -8.29551698
Br     -10.77031192     -12.92736816      -9.32409751
C       -1.79270853       1.79270853       1.79270853
C       -2.93321235       1.25385090       2.37762987
C       -3.73231624       2.06310580       3.17976973
C       -3.38529635       3.40781388       3.38923991
C       -2.23307491       3.97251050       2.80280647
C       -1.44271899       3.13193892       1.99990949
N       -1.92754505       5.33049898       3.03998705
C       -0.75027533       5.91537401       2.39584775
C       -2.79712399       6.09951795       3.79482906
C       -3.91796466       5.68965593       4.40919166
C       -4.26176742       4.24442172       4.24919933
O       -5.23668052       3.74291178       4.80518717
C       -4.77498627       6.57771041       5.17927826
C       -5.21494786       6.28861670       6.41421900
N       -6.03382102       7.06702657       7.21463568
C       -6.46514588       6.61419116       8.53828801
C       -6.54576483       8.28093105       6.70687994
C       -6.16515850       8.70915192       5.41747612
C       -5.23121905       7.88219117       4.61055280
O       -4.85543426       8.27769385       3.50887807
C       -6.65068794       9.90709509       4.86835555
C       -7.52870474      10.70303787       5.59786766
C       -7.91353253      10.29787305       6.87121333
C       -7.43113316       9.10538052       7.42242386
H       -3.20859051       0.21495112       2.21630367
H       -4.62794738       1.64950116       3.63930420
H       -0.54408750       3.50523958       1.51902892
H       -0.61354230       6.96504375       2.68115172
H       -0.84809599       5.88836017       1.30489574
H        0.16239866       5.38811788       2.69561304
H       -2.49431071       7.14294459       3.86474162
H       -4.92656145       5.34936779       6.88322703
H       -5.97711566       5.67450779       8.82245534
H       -7.54573161       6.43410086       8.55653934
H       -6.20251344       7.34853686       9.30806250
H       -6.34646205      10.21604732       3.87004450
H       -7.90379051      11.62716760       5.16645594
H       -7.76374383       8.83211558       8.41912257
C       -8.82201513      11.11623354       7.63183511
C       -9.58286930      11.80161045       8.26885586
Br     -10.81310614      12.90980694       9.29886452
C        1.79270853      -1.79270853       1.79270853
C        1.53034919      -3.15542055       1.87892338
C        2.33769546      -3.95299058       2.68450573
C        3.40152497      -3.38024226       3.40058291
C        3.68190564      -1.99952995       3.32695629
C        2.85259999      -1.21822790       2.50373951
N        4.76038562      -1.46937271       4.06827275
C        5.01843428      -0.02944855       4.01361426
C        5.48597322      -2.30404798       4.90144981
C        5.32807739      -3.62738160       5.06135327
C        4.24224873      -4.26002109       4.25311865
O        4.03501354      -5.47142848       4.27833746
C        6.13944977      -4.42277754       5.96974763
C        6.73335854      -5.57236520       5.61205982
N        7.51469725      -6.39359214       6.40719388
C        8.07986595      -7.64303731       5.89472178
C        7.69119159      -6.07181995       7.77056427
C        7.12003532      -4.88806291       8.28368831
C        6.34292711      -3.99418750       7.38684841
O        5.88905884      -2.93580467       7.81714267
C        7.26529243      -4.52759983       9.63324632
C        7.98539273      -5.34466573      10.49955181
C        8.55698337      -6.51446431      10.01117124
C        8.41546368      -6.87668061       8.66679325
H        0.70643781      -3.60357443       1.32983305
H        2.13746827      -5.02010277       2.75918171
H        3.01424368      -0.14949801       2.40461430
H        5.89452001       0.24678548       4.61200325
H        4.16705165       0.53523582       4.40953608
H        5.22659145       0.29220958       2.98695039
H        6.25425365      -1.78011309       5.46763019
H        6.61751541      -5.94570992       4.59593096
H        7.89316205      -7.76014002       4.82077671
H        7.63220962      -8.50859325       6.39556893
H        9.16739459      -7.66424079       6.02747742
H        6.81284003      -3.61147014      10.00824370
H        8.09152746      -5.06236877      11.54351781
H        8.87853429      -7.80104829       8.33539939
C        9.30326109      -7.36501748      10.90180521
C        9.92826867      -8.07735577      11.64771116
Br      10.93885307      -9.22914654      12.85377799
C       -0.00445707       0.01189536      -1.78238275
H       -0.66409135       0.67374010      -2.43557963
H        0.65740317      -0.63156657      -2.45157240
C       -0.90989263      -0.90692880      -0.91072765
C        0.90977584       0.90977584      -0.90977584
C       -0.00465871       1.77757030       0.00794375
H       -0.66225468       2.44313916      -0.64384735
H        0.64322798       2.43503045       0.67728295
C       -1.78241447       0.00034974      -0.00472694
H       -2.45427497      -0.65498947       0.64260836
H       -2.43311707       0.67328779      -0.65473579
C       -0.91132561       0.90220522       0.91563759
C       -0.01476271      -0.02253852       1.78660255
H       -0.67934791      -0.69751639       2.42135241
H        0.63392994       0.61504881       2.47327442
C        0.01484550      -1.77751727      -0.01636693
H        0.67870853      -2.42144646      -0.68295456
H       -0.62264859      -2.45592969       0.64226336
C        1.78714474       0.01002794       0.00389507
H        2.44202412       0.67113390       0.66197326
H        2.45385902      -0.65136977      -0.64189061
C        0.91606151      -0.90478549       0.90901405
