194
Properties=species:S:1:pos:R:3 pbc="F F F"
C        1.79282287       1.79282287      -1.79282287
C        1.45634801       3.12989928      -1.97725381
C        2.26298286       3.92837944      -2.78087325
C        3.39601800       3.37896132      -3.40052721
C        3.75072955       2.02143375      -3.23394796
C        2.92442837       1.24219880      -2.40715305
N        4.89184130       1.51047123      -3.89564777
C        5.23059360       0.09535055      -3.73576851
C        5.62581362       2.34672691      -4.72126149
C        5.38769136       3.64356328      -4.95265990
C        4.22723172       4.26018343      -4.25726552
O        3.95328169       5.45043769      -4.38304664
C        6.19363445       4.41139009      -5.83115058
C        6.84694567       5.09053184      -6.57452867
C        7.66185541       5.97026328      -7.51652313
C        8.31184458       6.64657979      -8.26350728
C        9.10319775       7.40629816      -9.16261836
C        8.82686223       8.68626902      -9.44315259
N        9.52604259       9.50619975     -10.31368252
C        9.11755888      10.88963557     -10.56333901
C       10.62927012       8.97802098     -11.02399967
C       11.01832261       7.63614866     -10.81304290
C       10.27579345       6.79523922      -9.84186934
O       10.62357684       5.63869515      -9.62063921
C       12.09367513       7.06036323     -11.50700893
C       12.80731114       7.81608185     -12.43055753
C       12.44638770       9.14184198     -12.64658580
C       11.37590155       9.72062237     -11.95366298
Br      13.41359157      10.17567330     -13.90152194
H        0.57600822       3.55806944      -1.50542424
H        2.00995998       4.97660644      -2.93123095
H        3.14290969       0.19387975      -2.23017824
H        6.12564108      -0.17202322      -4.30987617
H        4.41797307      -0.54429707      -4.09789103
H        5.44392322      -0.14002215      -2.68720403
H        6.46474159       1.85466548      -5.21027396
H        7.97676313       9.17266289      -8.96873879
H        8.24513975      11.16734704      -9.96010763
H        8.83609768      11.03054381     -11.61290245
H        9.92006422      11.58801752     -10.30131889
H       12.36850589       6.02221148     -11.32926412
H       13.63454370       7.36352110     -12.97070785
H       11.13595518      10.75908692     -12.15873674
C       -1.79282287      -1.79282287      -1.79282287
C       -2.65813438      -1.19931470      -2.70605202
C       -3.45851302      -2.00698391      -3.50673862
C       -3.39200522      -3.40312476      -3.38037655
C       -2.52692647      -4.02613890      -2.45304589
C       -1.72172118      -3.18568822      -1.66637082
N       -2.51087302      -5.43689368      -2.35019359
C       -1.62981464      -6.06662101      -1.36527701
C       -3.36846108      -6.18248859      -3.14285235
C       -4.22568323      -5.70484979      -4.05338151
C       -4.26748412      -4.23120938      -4.24598717
O       -4.99800183      -3.70677949      -5.08198471
C       -5.07506084      -6.55522449      -4.80588979
C       -5.81572683      -7.24205618      -5.45422317
C       -6.76686223      -8.09586919      -6.28591041
C       -7.51024466      -8.78239811      -6.92928888
C       -8.37752957      -9.63235714      -7.66222756
C       -9.27956480      -9.15010963      -8.52660941
N      -10.17766135      -9.89187734      -9.27638618
C      -11.14017508      -9.25406120     -10.17629719
C      -10.20572843     -11.29816624      -9.12739610
C       -9.30042041     -11.92507357      -8.24202019
C       -8.32113858     -11.10715449      -7.48460893
O       -7.50412002     -11.63992276      -6.73886841
C       -9.30126125     -13.31459139      -8.04519466
C      -10.21020836     -14.11171140      -8.73203076
C      -11.10408534     -13.51548356      -9.61524657
C      -11.10404867     -12.12963850      -9.81649973
Br     -12.34309433     -14.59447511     -10.55321738
H       -2.71847148      -0.11856715      -2.80246327
H       -4.13854622      -1.55335672      -4.22589444
H       -1.02953761      -3.59820407      -0.93922601
H       -1.72440591      -7.15887915      -1.38020897
H       -1.88164229      -5.73970604      -0.35021870
H       -0.57957922      -5.83598614      -1.57553974
H       -3.30558904      -7.25525331      -2.96883868
H       -9.35539713      -8.07632286      -8.68644482
H      -11.01918452      -8.16441585     -10.18899405
H      -12.16823236      -9.45594848      -9.85536309
H      -11.00215022      -9.60086411     -11.20638631
H       -8.59640824     -13.77101446      -7.35255880
H      -10.21174409     -15.18635093      -8.57067762
H      -11.82164863     -11.71487436     -10.51725584
C       -1.79282287       1.79282287       1.79282287
C       -2.73521509       1.20088877       2.62739723
C       -3.53523798       2.00852216       3.42847541
C       -3.39081143       3.40368798       3.38100713
C       -2.44638542       4.02577940       2.53394644
C       -1.64397752       3.18447954       1.74532316
N       -2.35279325       5.43703400       2.50813304
C       -1.38898921       6.06790087       1.60482258
C       -3.21260587       6.18625354       3.29494261
C       -4.14086829       5.70957189       4.13347436
C       -4.26817956       4.23240721       4.24409390
O       -5.06846465       3.70604974       5.01225164
C       -4.98498087       6.56489092       4.88630332
C       -5.72342625       7.25658641       5.53199352
C       -6.67310244       8.11676787       6.35877152
C       -7.41400553       8.80856068       6.99936545
C       -8.27494392       9.66542848       7.73174187
C       -9.24564732       9.18891968       8.52171684
N      -10.14374404       9.93869296       9.26348786
C      -11.18461648       9.30848520      10.07743178
C      -10.09189544      11.35022506       9.18917027
C       -9.10941050      11.97189093       8.38621273
C       -8.13383038      11.14219620       7.63687543
O       -7.25171523      11.66760365       6.96359232
C       -9.02869240      13.36767565       8.26467925
C       -9.93139510      14.17644706       8.94610837
C      -10.90079744      13.58487113       9.74914691
C      -10.98236825      12.19256622       9.87525243
Br     -12.13177473      14.67967769      10.67933439
H       -2.85576878       0.12144431       2.66228881
H       -4.27527270       1.55602191       4.08650277
H       -0.89349545       3.59573576       1.07773648
H       -1.42834217       7.16147714       1.67367473
H       -1.60218142       5.80728069       0.56210492
H       -0.36474484       5.77063352       1.85572674
H       -3.08575487       7.26156385       3.18236230
H       -9.38471192       8.11401181       8.61944109
H      -11.12029072       8.21468256      10.03762115
H      -12.18225496       9.58154240       9.71574658
H      -11.08470674       9.59429645      11.13039745
H       -8.26519097      13.82027375       7.63451678
H       -9.86936005      15.25644728       8.84296532
H      -11.75689107      11.78178364      10.51510413
C        1.79282287      -1.79282287       1.79282287
C        1.81978778      -3.16675164       1.57696167
C        2.62475594      -3.96491615       2.38256346
C        3.39016940      -3.38138540       3.40395173
C        3.37049341      -1.98947751       3.64614034
C        2.55772102      -1.20696081       2.80909838
N        4.14522666      -1.45206135       4.70067229
C        4.09277038      -0.01180007       4.95714221
C        4.88834920      -2.30762275       5.49783007
C        4.98537029      -3.63590795       5.36263630
C        4.23006806      -4.26654856       4.24806405
O        4.28632888      -5.47307291       4.02736424
C        5.76459899      -4.42696540       6.24461072
C        6.40560380      -5.13006596       6.97633643
C        7.21124019      -6.04170979       7.89569185
C        7.84755140      -6.74392750       8.63045276
C        8.60634789      -7.53648421       9.52928217
C        8.65216465      -8.87138688       9.43273232
N        9.34835160      -9.73211974      10.26545351
C        9.30708629     -11.18364107      10.07980610
C       10.07220082      -9.20077401      11.35831594
C       10.09873088      -7.80332176      11.56546152
C        9.37808804      -6.90377969      10.63103428
O        9.42119335      -5.68537220      10.77634564
C       10.78656161      -7.22897220      12.64551348
C       11.46634932      -8.04173909      13.54586211
C       11.46036903      -9.41945671      13.35498973
C       10.77770608      -9.99583595      12.27664487
Br      12.38372655     -10.53088861      14.57617166
H        1.22334505      -3.62408549       0.79207136
H        2.65468030      -5.04132862       2.22178845
H        2.50134757      -0.13041699       2.93520314
H        4.72645131       0.26951585       5.80655858
H        3.07289101       0.30441250       5.20308852
H        4.45376966       0.55345809       4.09079353
H        5.42417209      -1.80460610       6.30090283
H        8.10111145      -9.37571695       8.64133642
H        8.70383250     -11.46135779       9.20740414
H        8.85534742     -11.67590469      10.94829183
H       10.31240971     -11.58542190       9.91156903
H       10.78584451      -6.14939000      12.78474699
H       11.99135162      -7.59272348      14.38469755
H       10.80509969     -11.07588364      12.17279551
C       -0.00445707       0.01189536      -1.78238275
H       -0.66409135       0.67374010      -2.43557963
H        0.65740317      -0.63156657      -2.45157240
C       -0.90989263      -0.90692880      -0.91072765
C        0.90977584       0.90977584      -0.90977584
C       -0.00465871       1.77757030       0.00794375
H       -0.66225468       2.44313916      -0.64384735
H        0.64322798       2.43503045       0.67728295
C       -1.78241447       0.00034974      -0.00472694
H       -2.45427497      -0.65498947       0.64260836
H       -2.43311707       0.67328779      -0.65473579
C       -0.91132561       0.90220522       0.91563759
C       -0.01476271      -0.02253852       1.78660255
H       -0.67934791      -0.69751639       2.42135241
H        0.63392994       0.61504881       2.47327442
C        0.01484550      -1.77751727      -0.01636693
H        0.67870853      -2.42144646      -0.68295456
H       -0.62264859      -2.45592969       0.64226336
C        1.78714474       0.01002794       0.00389507
H        2.44202412       0.67113390       0.66197326
H        2.45385902      -0.65136977      -0.64189061
C        0.91606151      -0.90478549       0.90901405
