114
Properties=species:S:1:pos:R:3 pbc="F F F"
C        0.92367751       4.37933717      -5.36803642
C        1.74340107       3.09918665      -5.29010897
N        2.21412576       2.85413003      -3.91511650
C        1.47299793       2.06768126      -3.04422718
C        1.77395545       1.77395545      -1.77395545
C        3.02992937       2.34662723      -1.22158498
O        3.40458626       2.12511185      -0.07492214
C        3.83242644       3.22031284      -2.11915739
C        5.00960475       3.79390327      -1.60964957
C        5.78531726       4.62368581      -2.41255246
C        5.37889881       4.87577636      -3.71729850
Br       6.42336551       6.00797697      -4.81617987
C        4.20710636       4.30526839      -4.22990171
C        3.40319245       3.45997056      -3.44547966
H        0.55881450       4.53268438      -6.38843675
H        1.51320985       5.25615598      -5.08366554
H        0.05644303       4.33089738      -4.70104783
H        2.57026862       3.11546098      -6.00855755
H        1.11035822       2.26326699      -5.61647592
H        0.56195730       1.67061466      -3.48663643
H        5.31952974       3.59372644      -0.58530636
H        6.69430594       5.06504774      -2.01240216
H        3.93893726       4.54440304      -5.25347743
C       -6.24214856      -2.40884995      -2.02005259
C       -5.16198336      -3.38801674      -1.58269660
N       -3.84764469      -3.00622988      -2.12949771
C       -2.98396529      -2.20352802      -1.39741307
C       -1.77395545      -1.77395545      -1.77395545
C       -1.29160375      -2.18878582      -3.11775201
O       -0.19128606      -1.86279584      -3.55053835
C       -2.20626395      -3.02395089      -3.94168183
C       -1.78193880      -3.40551634      -5.22570245
C       -2.60958339      -4.17952432      -6.03244781
C       -3.85509831      -4.56513800      -5.55173736
Br      -4.99143560      -5.61290277      -6.64318399
C       -4.28176063      -4.18836422      -4.27215160
C       -3.46787201      -3.40949208      -3.43127858
H       -7.20583363      -2.69004882      -1.58405318
H       -6.35530505      -2.38953362      -3.10819270
H       -6.00508872      -1.39123346      -1.69206605
H       -5.43134209      -4.41666208      -1.84628297
H       -5.11819761      -3.38652223      -0.48538129
H       -3.37547615      -1.92120026      -0.42253198
H       -0.80576302      -3.09675698      -5.59604254
H       -2.27605165      -4.47070986      -7.02499433
H       -5.26663098      -4.51475135      -3.95543540
C       -0.87998727       5.16081118       4.63025264
C       -1.42342948       3.77246572       4.93680150
N       -2.05858856       3.17739484       3.74738889
C       -1.33003828       2.36616153       2.88870657
C       -1.77395545       1.77395545       1.77395545
C       -3.19469198       2.00306329       1.40038631
O       -3.70362304       1.49327040       0.40772680
C       -3.99569796       2.89356337       2.28263534
C       -5.33341685       3.14550855       1.93423219
C       -6.11555868       3.97890607       2.72709077
C       -5.55565756       4.55567518       3.86064093
Br      -6.60882724       5.69583527       4.94285986
C       -4.22324079       4.30642821       4.21260746
C       -3.40763689       3.46655987       3.43444591
H       -0.38784673       5.57752703       5.51456186
H       -1.67472318       5.84973234       4.32857585
H       -0.14563716       5.12410060       3.81865047
H       -2.10365756       3.79539513       5.79523445
H       -0.58798787       3.13884402       5.26326924
H       -0.29620191       2.22614371       3.19686277
H       -5.76370336       2.69204677       1.04281241
H       -7.14932633       4.17058945       2.45184005
H       -3.84128325       4.79029897       5.10523550
C        6.25038081      -2.27803307       2.14263722
C        5.21600649      -3.27566181       1.64102841
N        3.87390019      -2.95228672       2.15718538
C        3.00809931      -2.15371984       1.42308723
C        1.77395545      -1.77395545       1.77395545
C        1.26378956      -2.24611697       3.08823505
O        0.14079426      -1.96823732       3.49558866
C        2.17871848      -3.07846803       3.91471016
C        1.72730817      -3.51369920       5.17215022
C        2.55388852      -4.28709382       5.98057319
C        3.82531917      -4.61852502       5.52812947
Br       4.96021967      -5.66494604       6.62235664
C        4.27908011      -4.18814997       4.27504638
C        3.46714141      -3.40838307       3.43311819
H        7.23554955      -2.51528434       1.72910174
H        6.32919396      -2.28992874       3.23390868
H        5.99124669      -1.25828742       1.83885412
H        5.50974877      -4.30337462       1.88116376
H        5.20611572      -3.24054024       0.54344517
H        3.42034101      -1.82849729       0.47037010
H        0.73081085      -3.24720734       5.52054435
H        2.19930543      -4.61993742       6.95251300
H        5.28316877      -4.47369308       3.97995588
C       -0.00445707       0.01189536      -1.78238275
H       -0.66409135       0.67374010      -2.43557963
H        0.65740317      -0.63156657      -2.45157240
C       -0.90989263      -0.90692880      -0.91072765
C        0.90977584       0.90977584      -0.90977584
C       -0.00465871       1.77757030       0.00794375
H       -0.66225468       2.44313916      -0.64384735
H        0.64322798       2.43503045       0.67728295
C       -1.78241447       0.00034974      -0.00472694
H       -2.45427497      -0.65498947       0.64260836
H       -2.43311707       0.67328779      -0.65473579
C       -0.91132561       0.90220522       0.91563759
C       -0.01476271      -0.02253852       1.78660255
H       -0.67934791      -0.69751639       2.42135241
H        0.63392994       0.61504881       2.47327442
C        0.01484550      -1.77751727      -0.01636693
H        0.67870853      -2.42144646      -0.68295456
H       -0.62264859      -2.45592969       0.64226336
C        1.78714474       0.01002794       0.00389507
H        2.44202412       0.67113390       0.66197326
H        2.45385902      -0.65136977      -0.64189061
C        0.91606151      -0.90478549       0.90901405
