189
Properties=species:S:1:pos:R:3 pbc="F F F"
C        0.00000000       0.00000000       0.00000000
C        6.56406574       8.40823271      -3.92428158
C        6.74871963       7.11633377      -4.70638427
N        5.48071869       6.67997459      -5.31763828
C        4.64344410       5.80062833      -4.64570293
C        3.52086811       5.21789549      -5.09916606
C        2.71599267       4.28917343      -4.30490421
C        1.37850365       4.19554248      -4.39785120
N        0.53092531       3.35040166      -3.69467797
C       -0.91540885       3.34122229      -3.97866005
C       -1.65249779       4.32504317      -3.08212689
C        1.06979669       2.51504241      -2.69437429
C        2.46517196       2.49653139      -2.48881296
C        3.34830537       3.34868674      -3.32656243
O        4.56724920       3.26576612      -3.19105464
C        3.05412835       1.68636842      -1.50265974
C        2.25959483       0.87792572      -0.69660485
C        0.88263496       0.88263496      -0.88263496
C        0.29286325       1.68770223      -1.86512395
C        3.15035904       5.56801972      -6.50783856
O        2.18987122       5.05760429      -7.07942890
C        3.97466597       6.57620353      -7.22672453
C        5.12460353       7.11239896      -6.61182150
C        5.85058118       8.07060302      -7.34037697
C        5.45169183       8.46152600      -8.62433045
C        4.32127996       7.91416296      -9.21779026
C        3.57870645       6.96897560      -8.51715288
H        7.51280736       8.71412504      -3.47270246
H        5.83240154       8.27829130      -3.12053567
H        6.21422106       9.22271491      -4.56541724
H        7.11115589       6.34151506      -4.01720169
H        7.54754906       7.21829817      -5.44975436
H        4.99201427       5.59787618      -3.63504325
H        0.83519102       4.83711390      -5.08869455
H       -1.34292144       2.33609113      -3.89501079
H       -1.08684585       3.62781222      -5.02471198
H       -1.53882629       4.07154505      -2.02374483
H       -2.72109099       4.32460266      -3.31882268
H       -1.27431195       5.34338502      -3.22294039
H        4.13341029       1.68827817      -1.36326423
H        2.72090680       0.25552965       0.06554091
H       -0.78754981       1.65818478      -1.95833504
H        6.73403070       8.54030579      -6.92139351
H        4.00957865       8.21397501     -10.21485082
H        2.69053054       6.53699487      -8.97426236
C        6.22212099       9.44637039      -9.33855761
C        6.86735540      10.27117757      -9.93672286
Br       7.91064488      11.60482102     -10.90390548
C       -5.99262102      -4.21392940      -8.69002960
C       -5.61023734      -5.28344607      -7.67775426
N       -6.15898182      -4.97384747      -6.34550227
C       -5.40578003      -4.25929820      -5.42469713
C       -5.70319356      -3.99301213      -4.14172396
C       -4.82406565      -3.23638660      -3.24961807
C       -5.27103597      -2.42484580      -2.27601556
N       -4.52264678      -1.67139663      -1.38196153
C       -5.19051206      -0.88375578      -0.33020565
C       -5.47711333       0.53165460      -0.80921354
C       -3.11785925      -1.65627412      -1.50508003
C       -2.50176591      -2.47026460      -2.47848579
C       -3.33386259      -3.33388303      -3.35580892
O       -2.78155884      -4.09616639      -4.14634474
C       -1.10641592      -2.48989551      -2.64684508
C       -0.29495164      -1.69242231      -1.84675146
C       -0.88263496      -0.88263496      -0.88263496
C       -2.27243018      -0.86174211      -0.71151714
C       -7.00881769      -4.55210406      -3.66529557
O       -7.37959008      -4.44891939      -2.49839496
C       -7.88277572      -5.24582342      -4.64899490
C       -7.43654880      -5.43996726      -5.97230793
C       -8.31694950      -6.09025042      -6.85436125
C       -9.57457210      -6.53456873      -6.42840745
C       -9.99245880      -6.34324342      -5.11753096
C       -9.14501328      -5.69576245      -4.22405919
H       -5.57239762      -4.45623672      -9.67100053
H       -5.60785756      -3.23435013      -8.38902082
H       -7.07796981      -4.12760946      -8.79677394
H       -4.51430050      -5.33346814      -7.62210399
H       -5.91342311      -6.27804275      -8.02413573
H       -4.47332961      -3.89794862      -5.85365548
H       -6.34076650      -2.29808699      -2.12214599
H       -4.61561192      -0.87481275       0.60224419
H       -6.14297096      -1.36013930      -0.06256809
H       -4.55732900       1.06620955      -1.06534414
H       -5.99288686       1.09802577      -0.02747325
H       -6.11576780       0.52286467      -1.69911032
H       -0.65380025      -3.12697197      -3.40418047
H        0.78303005      -1.71049735      -1.98342824
H       -2.67606102      -0.20273681       0.04982782
H       -8.04821208      -6.25527522      -7.89224270
H      -10.96724625      -6.68822224      -4.78293599
H       -9.46589167      -5.54003934      -3.19585675
C      -10.44799165      -7.19659322      -7.36246412
C      -11.17948052      -7.75103873      -8.14473658
Br     -12.36223616      -8.64753022      -9.40960500
C       -4.71799191       8.87950271       5.29908540
C       -5.64357844       7.67279812       5.25506111
N       -5.03557274       6.51249658       5.93026224
C       -4.29152166       5.59033119       5.20792251
C       -3.77053448       4.42901296       5.63838221
C       -3.00860116       3.51948614       4.78198302
C       -1.98713507       2.76416612       5.22059614
N       -1.20902360       1.87453029       4.49245104
C       -0.16554686       1.07716473       5.16176190
C        1.17406039       1.79790786       5.13082480
C       -1.41877516       1.75764820       3.10279003
C       -2.46709955       2.48363893       2.49977782
C       -3.33761750       3.35525076       3.33068629
O       -4.29517832       3.92134581       2.80754585
C       -2.71705734       2.40742388       1.11867529
C       -1.92116533       1.60501544       0.30794464
C       -0.88263496       0.88263496       0.88263496
C       -0.63178251       0.95539876       2.25850816
C       -4.04522968       4.10583175       7.07515589
O       -3.69234289       3.04650278       7.58805875
C       -4.76218534       5.11286942       7.90253928
C       -5.24128213       6.29863344       7.30890842
C       -5.89766812       7.21398647       8.14990658
C       -6.07603831       6.94846310       9.51304687
C       -5.60591148       5.76958947      10.07773223
C       -4.94553866       4.84830942       9.27098684
H       -5.18200382       9.72903241       4.78859864
H       -3.76771443       8.66255736       4.80095672
H       -4.49476711       9.18076599       6.32682010
H       -5.84165329       7.42479353       4.20342581
H       -6.62803498       7.91790896       5.66965765
H       -4.14741870       5.90210200       4.17541300
H       -1.68240418       2.81460970       6.26398560
H       -0.08143568       0.07175930       4.73498549
H       -0.44632936       0.90937159       6.20997740
H        1.51823520       1.96847434       4.10622445
H        1.93387554       1.20578333       5.65042655
H        1.10657773       2.77270911       5.62588207
H       -3.53248478       2.97626516       0.67620275
H       -2.11823147       1.55215687      -0.75949280
H        0.19860401       0.37748999       2.65008403
H       -6.27408943       8.15596532       7.76567525
H       -5.74398311       5.55937198      11.13504939
H       -4.57227633       3.92329073       9.70622070
C       -6.75373040       7.91161459      10.34170401
C       -7.32129752       8.71825395      11.03570437
Br      -8.23900555      10.02252159      12.15784424
C        8.83828791      -5.52177619       4.53651592
C        7.68705657      -5.36550554       5.51887556
N        6.46266558      -6.00739273       5.00827325
C        5.53988225      -5.27539300       4.27450011
C        4.33168217      -5.66871072       3.83753677
C        3.42739369      -4.80461761       3.07805902
C        2.59667808      -5.25354028       2.12167897
N        1.70479548      -4.51924616       1.35196330
C        0.81916764      -5.19708832       0.38821752
C        1.46729880      -5.27358308      -0.98620960
C        1.67060084      -3.11640052       1.49221203
C        2.48192224      -2.50057895       2.46801511
C        3.35555644      -3.33165584       3.33634226
O        3.99844792      -2.79150837       4.23411368
C        2.49001166      -1.10640409       2.64674076
C        1.68838000      -0.29536322       1.85038219
C        0.88263496      -0.88263496       0.88263496
C        0.87132301      -2.27145467       0.70291175
C        3.95073128      -7.07004851       4.20543753
O        2.84908319      -7.54248285       3.93533838
C        4.95132062      -7.91276152       4.91351189
C        6.18998477      -7.36018321       5.29865601
C        7.09518209      -8.21462895       5.95175013
C        6.77030318      -9.55057000       6.21667511
C        5.54047395     -10.07419551       5.83856372
C        4.62739961      -9.25379229       5.18364303
H        9.73658241      -5.03476122       4.92829123
H        8.59619558      -5.06192299       3.57310994
H        9.07413481      -6.57432247       4.35389593
H        7.50418778      -4.29328128       5.67240357
H        7.96335008      -5.74182780       6.51042371
H        5.89582118      -4.26990940       4.05920313
H        2.57720496      -6.31234715       1.87144737
H       -0.16616971      -4.72160310       0.33274709
H        0.61337212      -6.21900560       0.73330063
H        1.67123575      -4.27860668      -1.39337883
H        0.80928881      -5.79868712      -1.68564159
H        2.41772882      -5.81636125      -0.94207661
H        3.12385618      -0.65411749       3.40697901
H        1.70087156       0.78204997       1.99207394
H        0.23023235      -2.67326147      -0.07452381
H        8.07449333      -7.86298218       6.25825448
H        5.28421409     -11.11020013       6.04399027
H        3.66256394      -9.65705322       4.88217060
C        7.72494626     -10.39419558       6.88790714
C        8.52445985     -11.10073202       7.45006397
Br       9.81720569     -12.24314167       8.35902402
