197
Properties=species:S:1:pos:R:3 pbc="F F F"
C        0.00000000       0.00000000       0.00000000
C       10.97490427       9.26190667      -7.96477607
C        9.55308170       9.75439325      -8.19124356
N        8.73531669       8.72527191      -8.85686876
C        7.95888114       7.84475267      -8.11187169
C        7.15356443       6.88869332      -8.59019236
C        6.37257000       6.05606792      -7.76944535
C        5.71146935       5.35126119      -7.07469701
C        4.95159334       4.54114044      -6.27613459
C        4.29049421       3.83633732      -5.58137705
C        3.50949979       3.00371193      -4.76063005
C        2.83069489       1.94366673      -5.21401587
N        1.99774811       1.11348969      -4.47185185
C        1.28284298      -0.00173010      -5.11605720
C        2.08134065      -1.29250793      -5.01191220
C        1.82941476       1.36315874      -3.08854291
C        2.48526721       2.46391962      -2.49380576
C        3.36241984       3.33236710      -3.31470128
O        3.94096994       4.28891353      -2.80614581
C        2.33320513       2.77316083      -1.13114983
C        1.52536555       1.98087141      -0.32386464
C        0.88307440       0.88307440      -0.88307440
C        1.03146498       0.57353615      -2.24212227
C        7.07784086       6.74847025     -10.07144702
O        6.35498654       5.91281392     -10.60663658
C        7.91352040       7.65619283     -10.89512853
C        8.73279542       8.62138890     -10.26865354
C        9.50967541       9.43336334     -11.11355379
C        9.45824630       9.29394841     -12.50701717
Br      10.52558480      10.41275319     -13.59776385
C        8.63563909       8.34483386     -13.10148875
C        7.86121026       7.52087059     -12.29299000
H       11.56559350      10.03362586      -7.46142771
H       11.47371312       9.01369880      -8.90652680
H       10.98289297       8.36447075      -7.33737595
H        9.54733295      10.70023701      -8.74429069
H        9.11251639      10.00192424      -7.21639217
H        8.04170208       7.99363373      -7.03719389
H        2.89232703       1.67190469      -6.26607478
H        1.12616256       0.22524137      -6.17886820
H        0.27306739      -0.12997068      -4.71109548
H        3.05383793      -1.19117925      -5.50528253
H        1.53964204      -2.11167003      -5.49498668
H        2.26413101      -1.57317120      -3.97012601
H        2.84499428       3.63328458      -0.70285095
H        1.40924618       2.22605854       0.72861295
H        0.51098307      -0.30110811      -2.61697297
H       10.17683722      10.18720782     -10.70933531
H        8.59152043       8.23585628     -14.18206159
H        7.21605039       6.77155378     -12.74835265
C       -8.62038574      -8.44035531     -11.14084595
C       -9.41667166      -8.21879645      -9.86325040
N       -8.75503017      -8.85288692      -8.70954027
C       -7.88714374      -8.12636163      -7.90200014
C       -7.24751568      -8.57121554      -6.81371888
C       -6.40782911      -7.76232352      -6.02793065
C       -5.69704581      -7.07761036      -5.36277138
C       -4.88005319      -6.29058468      -4.59823050
C       -4.16927082      -5.60586245      -3.93307532
C       -3.32958425      -4.79697042      -3.14728709
C       -2.56071302      -5.26854837      -2.15911611
N       -1.75226172      -4.52143661      -1.30939132
C       -0.98378583      -5.17646249      -0.23692176
C        0.42272964      -5.51769877      -0.70577579
C       -1.68903420      -3.11689779      -1.47518443
C       -2.46701401      -2.49749265      -2.47848593
C       -3.32233820      -3.32279720      -3.36435282
O       -3.99872493      -2.79448013      -4.24282423
C       -2.46230769      -1.10507295      -2.67013514
C       -1.66939544      -0.29477265      -1.86593351
C       -0.88307440      -0.88307440      -0.88307440
C       -0.88733482      -2.27123452      -0.68855406
C       -7.48534960      -9.98913606      -6.42327248
O       -6.95811631     -10.48481295      -5.43150779
C       -8.38667902     -10.79955722      -7.27860552
C       -8.99664164     -10.21536036      -8.41083586
C       -9.82328840     -11.05020843      -9.18309571
C      -10.03608257     -12.39030246      -8.83282684
Br     -11.15802082     -13.47002077      -9.90806025
C       -9.43435321     -12.94015986      -7.70744863
C       -8.60459518     -12.14283683      -6.92763885
H       -9.11985608      -7.95543187     -11.98535912
H       -8.51517161      -9.50411008     -11.37465702
H       -7.61398654      -8.01784711     -11.05290601
H      -10.45078962      -8.56180530      -9.97926573
H       -9.50207903      -7.13770606      -9.69104771
H       -7.75408644      -7.09528816      -8.22315511
H       -2.54366108      -6.33650034      -1.95014508
H       -1.48575034      -6.10623658       0.06171480
H       -0.95830804      -4.57268662       0.67680247
H        0.39440259      -6.20177805      -1.56056575
H        0.98163142      -6.00424805       0.09965794
H        0.97572904      -4.62453164      -1.01228322
H       -3.07911622      -0.65556165      -3.44645194
H       -1.67153455       0.78159147      -2.01674868
H       -0.24551215      -2.67059432       0.08925854
H      -10.31492878     -10.68144278     -10.07700879
H       -9.59935560     -13.97849322      -7.43158948
H       -8.12534983     -12.56468710      -6.04591989
C      -10.67348953       7.73239536       9.79570211
C      -10.14768467       8.64966260       8.70137125
N       -8.68817725       8.82052583       8.80875428
C       -7.82356608       8.00754830       8.08439113
C       -6.48699670       8.07629089       8.06916252
C       -5.68030263       7.23573032       7.28205033
C       -4.99744594       6.52420880       6.61577281
C       -4.21256067       5.70636507       5.84994263
C       -3.52971057       4.99483826       5.18365976
C       -2.72301650       4.15427768       4.39654758
C       -1.38974564       4.10309209       4.49553976
N       -0.52928276       3.33971409       3.71409280
C        0.92833196       3.41131512       3.91418692
C        1.39988820       2.32800097       4.87263215
C       -1.06992253       2.50299975       2.70819414
C       -2.46650098       2.47933763       2.49715398
C       -3.35547247       3.30934510       3.34467064
O       -4.57136465       3.29215909       3.17250554
C       -3.05440365       1.68716982       1.49594231
C       -2.25802594       0.88872135       0.68335431
C       -0.88307440       0.88307440       0.88307440
C       -0.29400604       1.67356605       1.87955131
C       -5.85549860       9.12906194       8.91319759
O       -4.63814013       9.28300531       8.95329160
C       -6.74902817       9.99734388       9.71846971
C       -8.14878503       9.81840102       9.65565181
C       -8.92977000      10.66646608      10.46035646
C       -8.34151525      11.64605480      11.27164182
Br      -9.43975740      12.76062717      12.33571726
C       -6.96230657      11.81140523      11.30824990
C       -6.16189557      10.98287510      10.53030018
H      -11.75630950       7.60846338       9.69587418
H      -10.46862630       8.13163841      10.79367400
H      -10.21067673       6.74202301       9.73203992
H      -10.67226856       9.61157850       8.70801358
H      -10.39644993       8.20626207       7.72812079
H       -8.33312324       7.26186988       7.47753658
H       -0.87894138       4.71382165       5.23754347
H        1.19525054       4.38913619       4.33638647
H        1.47522683       3.36321899       2.96620003
H        0.92347673       2.43890569       5.85251225
H        2.48334219       2.39340013       5.01290075
H        1.16495062       1.32641854       4.49961791
H       -4.13340779       1.69617476       1.35154726
H       -2.71761805       0.28009809      -0.09102437
H        0.78346652       1.61899555       1.99131890
H      -10.01103882      10.58151028      10.48083125
H       -6.50304426      12.57191617      11.93447787
H       -5.08004688      11.10156524      10.55434469
C        8.26526053     -11.11402718       8.82229929
C        8.19392311      -9.77090942       9.53388598
N        8.85554805      -8.71713130       8.74477801
C        8.12406216      -7.91989203       7.87155132
C        8.59453242      -6.91544450       7.12247318
C        7.78171337      -6.13168529       6.28468462
C        7.09367604      -5.46824377       5.57550774
C        6.30282874      -4.70567736       4.76036227
C        5.61478217      -4.04223917       4.05118725
C        4.80196312      -3.25847996       3.21339869
C        5.28231528      -2.36464932       2.34141290
N        4.53776276      -1.51975012       1.52557677
C        5.20651284      -0.55581871       0.63483853
C        5.40754292      -1.14607329      -0.75287128
C        3.12430278      -1.58357476       1.57323888
C        2.49653061      -2.48071500       2.46574697
C        3.31986022      -3.36416568       3.32546231
O        2.78378279      -4.15107277       4.10117372
C        1.09771604      -2.56708228       2.57271746
C        0.28829599      -1.76163399       1.78017163
C        0.88307440      -0.88307440       0.88307440
C        2.27781889      -0.79356230       0.77574220
C       10.05011125      -6.61696122       7.23068566
O       10.57283830      -5.70448869       6.59711006
C       10.86422460      -7.46570777       8.13490939
C       10.24984822      -8.50547702       8.86751262
C       11.08845175      -9.27863983       9.68950097
C       12.46192736      -9.01602468       9.78125983
Br      13.54513052     -10.08833285      10.90263847
C       13.04228530      -7.97991676       9.05975964
C       12.24130249      -7.20228006       8.23148831
H        7.76142959     -11.88277184       9.41644564
H        9.29916972     -11.43386393       8.66090507
H        7.77552165     -11.06510501       7.84411301
H        8.60470329      -9.83985077      10.54730659
H        7.13697874      -9.51243723       9.68141682
H        7.06600050      -8.17119141       7.83533778
H        6.35794896      -2.23819703       2.23416051
H        6.18994924      -0.29354252       1.04678036
H        4.66782791       0.39666251       0.58302679
H        6.03043805      -2.04576455      -0.70826139
H        5.90579703      -0.42047512      -1.40331346
H        4.45613685      -1.42249337      -1.21754440
H        0.64268825      -3.26245486       3.27598670
H       -0.79276378      -1.83064686       1.86880869
H        2.68118512      -0.09468153       0.05098129
H       10.69612731     -10.10579659      10.27145645
H       14.10680456      -7.77198840       9.13064535
H       12.68651096      -6.39037511       7.65907075
