181
Properties=species:S:1:pos:R:3 pbc="F F F"
C        0.00000000       0.00000000       0.00000000
C        4.19309534       3.79031589       0.02162355
C        2.80358568       4.06534345      -0.53581200
N        2.23440423       2.85913417      -1.16238424
C        1.42943644       1.99685548      -0.43047084
C        0.86414975       0.86414975      -0.86414975
C        1.12345235       0.47201206      -2.27398349
O        0.62598435      -0.53001739      -2.77974201
C        2.02309847       1.34813353      -3.06930081
C        2.55378615       2.52467568      -2.49980211
C        3.38127911       3.31184196      -3.32541143
C        3.68889110       2.96159305      -4.65965878
C        3.15142964       1.77148252      -5.16818623
C        2.32129625       0.97274795      -4.38559290
C        4.53246838       3.83446580      -5.50345323
C        5.72972163       4.37805581      -5.02107913
C        6.50380480       5.21497894      -5.82409719
C        6.09371028       5.51474349      -7.13077789
C        4.90291322       4.98528437      -7.66826987
C        4.14329038       4.15223224      -6.82444959
N        4.52694283       5.30745491      -8.99373436
C        3.31005298       4.72660457      -9.58853273
C        3.58797966       3.34447545     -10.16339142
C        5.36454553       6.11609714      -9.74906059
C        6.51084949       6.67865068      -9.34932436
C        6.94906123       6.41047762      -7.95322259
O        7.97308377       6.89734471      -7.48037314
Br       7.55086015       7.75498394     -10.45182415
H        4.59013783       4.68804197       0.50593384
H        4.89377206       3.49133709      -0.76387535
H        4.16521469       2.98761704       0.76615827
H        2.81541023       4.91720112      -1.22420176
H        2.15835385       4.38891164       0.29171095
H        1.26872474       2.31930892       0.59596752
H        3.80129596       4.23974912      -2.94868491
H        3.37778826       1.44935317      -6.18297984
H        1.90750485       0.05677053      -4.80360068
H        6.07989030       4.14853310      -4.01729135
H        7.43019873       5.62954192      -5.43121058
H        3.20756146       3.73039111      -7.17762264
H        2.95280189       5.37303982     -10.40109030
H        2.47905020       4.69768682      -8.87585649
H        4.35471848       3.39239183     -10.94428641
H        2.67763232       2.92971190     -10.60767270
H        3.93847701       2.64777635      -9.39558108
H        5.00926255       6.28162476     -10.76357748
C       -1.27900891      -1.34346786      -5.33931091
C       -2.28209632      -0.78010147      -4.34254333
N       -2.00789779      -1.26849022      -2.97953463
C       -1.20793424      -0.53423260      -2.11459592
C       -0.86414975      -0.86414975      -0.86414975
C       -1.38002583      -2.15379274      -0.33562933
O       -1.15120841      -2.53370303       0.80920247
C       -2.19794444      -2.98739496      -1.25519342
C       -2.49950836      -2.52522831      -2.55352727
C       -3.29728317      -3.36475897      -3.35649036
C       -3.77964213      -4.61714685      -2.91335395
C       -3.43268866      -5.03643163      -1.62197809
C       -2.65443322      -4.22953630      -0.79566757
C       -4.64409019      -5.45116447      -3.77513276
C       -4.33098617      -5.67631081      -5.12155959
C       -5.16759603      -6.45003852      -5.92524638
C       -6.33080573      -7.01971153      -5.38871439
C       -6.68615161      -6.83291941      -4.03739642
C       -5.82203605      -6.03804831      -3.25988785
N       -7.86562257      -7.42974401      -3.53276551
C       -8.22899104      -7.28427709      -2.11192215
C       -7.51714747      -8.32278944      -1.25590961
C       -8.63140578      -8.21871378      -4.37958369
C       -8.40016389      -8.46428305      -5.67437759
C       -7.19421407      -7.83838179      -6.28016558
O       -6.90434011      -7.98102157      -7.46543994
Br      -9.50486228      -9.53648015      -6.71632581
H       -1.48067680      -0.95067997      -6.34088919
H       -1.32503932      -2.43563305      -5.38831214
H       -0.25568783      -1.06524299      -5.06574265
H       -3.31051432      -0.99227235      -4.65402645
H       -2.20887347       0.31537665      -4.36205772
H       -0.84919544       0.39944081      -2.54231151
H       -3.57980283      -3.05244243      -4.35748474
H       -3.76262699      -6.00270378      -1.24479051
H       -2.40404313      -4.57099943       0.20716650
H       -3.42629732      -5.26035571      -5.55906172
H       -4.90879367      -6.61235207      -6.96980549
H       -6.05401012      -5.84421585      -2.21734924
H       -9.31183565      -7.42222794      -1.99286841
H       -8.03951163      -6.27108195      -1.74199993
H       -7.78393438      -9.33788478      -1.56957755
H       -7.80254563      -8.20692883      -0.20554247
H       -6.42887726      -8.22896366      -1.32399352
H       -9.49918714      -8.66029137      -3.89498627
C       -5.29973592       0.93193312       1.73011864
C       -4.45597096       1.95961936       0.98915081
N       -3.03573031       1.85286121       1.36733112
C       -2.16561913       1.06481583       0.62632779
C       -0.86414975       0.86414975       0.86414975
C       -0.27705328       1.54466858       2.04772605
O        0.91307114       1.45358728       2.33519284
C       -1.19440264       2.35524021       2.89088997
C       -2.55083788       2.49726168       2.53016438
C       -3.35012505       3.29856697       3.36984048
C       -2.84774307       3.93486852       4.52753134
C       -1.49760975       3.74314270       4.85034594
C       -0.67419275       2.96633668       4.03910767
C       -3.71219148       4.79664694       5.36154899
C       -4.99791046       4.39050093       5.74044518
C       -5.80734306       5.22397847       6.51155940
C       -5.33666490       6.47845618       6.92411058
C       -4.04678728       6.93057363       6.57910654
C       -3.26253031       6.06552691       5.79191499
N       -3.60693196       8.20099053       7.02020960
C       -2.24528057       8.67105252       6.70885719
C       -1.23820336       8.13866459       7.71897858
C       -4.45105513       8.96193523       7.81671288
C       -5.69160282       8.64340580       8.20381591
C       -6.23177344       7.33515873       7.74582927
O       -7.36708092       6.95819994       8.02552076
Br      -6.73690342       9.75046376       9.27030106
H       -6.34633654       1.00732622       1.41858320
H       -5.25770467       1.07746440       2.81381543
H       -4.95507640      -0.08555978       1.51715685
H       -4.84446050       2.97256925       1.13978336
H       -4.56363978       1.78084674      -0.08893198
H       -2.63677140       0.58283438      -0.22753964
H       -4.39685613       3.46186000       3.13101387
H       -1.07098046       4.19527760       5.74386321
H        0.37383436       2.83784390       4.30386652
H       -5.38166718       3.41565490       5.44839268
H       -6.80436395       4.89194884       6.79463844
H       -2.26769663       6.36777127       5.48010730
H       -2.21848185       9.76835029       6.74009986
H       -1.94852635       8.41872112       5.68534604
H       -1.48638063       8.47273174       8.73228434
H       -0.23391805       8.50200253       7.47909633
H       -1.21010264       7.04462844       7.72710336
H       -4.01484861       9.90672290       8.13289327
C        0.25317231      -2.81182531       4.89679006
C        1.20396133      -1.68620345       4.51457634
N        1.48818076      -1.69904093       3.06870095
C        0.72887909      -0.93428612       2.19359755
C        0.86414975      -0.86414975       0.86414975
C        1.93102809      -1.69320449       0.24521532
O        2.16007753      -1.67647818      -0.96084674
C        2.72837759      -2.56208981       1.15006542
C        2.49489303      -2.54215589       2.54121502
C        3.30649710      -3.37919192       3.33284348
C        4.30777413      -4.21458069       2.78778811
C        4.48325264      -4.21038772       1.39745802
C        3.70701055      -3.38903775       0.58358880
C        5.16185651      -5.05082026       3.65771065
C        4.61544777      -5.82242422       4.69098458
C        5.43772029      -6.59078627       5.51437437
C        6.82454025      -6.60519165       5.30949976
C        7.42395848      -5.85522612       4.27728286
C        6.56261881      -5.08455687       3.47279653
N        8.82695457      -5.90132283       4.09985469
C        9.46653410      -5.16101618       2.99764000
C        9.42785520      -5.96356605       1.70442528
C        9.58022063      -6.71730090       4.93218172
C        9.12785051      -7.46727273       5.94370129
C        7.66444835      -7.43874228       6.20957081
O        7.15050302      -8.07194319       7.12835540
Br      10.23695686      -8.52008142       7.00062996
H        0.03216172      -2.77199624       5.96808800
H        0.67849848      -3.79534629       4.67513975
H       -0.69320294      -2.72783840       4.35203802
H        2.12110344      -1.72352186       5.11218781
H        0.73538553      -0.73163593       4.78853308
H       -0.04196883      -0.34663546       2.68739951
H        3.18724451      -3.39028831       4.41219718
H        5.22710668      -4.85301752       0.92999707
H        3.86608726      -3.39505969      -0.49327089
H        3.54147098      -5.84282989       4.86141388
H        4.99509850      -7.18244580       6.31340693
H        6.96925315      -4.47235125       2.67397080
H       10.51668840      -4.96141915       3.24882445
H        9.02442628      -4.16866088       2.85950635
H        9.95438959      -6.91720729       1.81979983
H        9.91266066      -5.40450435       0.89785191
H        8.40204662      -6.18554471       1.39424311
H       10.64263994      -6.71225804       4.69956681
