189
Properties=species:S:1:pos:R:3 pbc="F F F"
C        0.00000000       0.00000000       0.00000000
C        4.19309534       3.79031589       0.02162355
C        2.80358568       4.06534345      -0.53581200
N        2.23440423       2.85913417      -1.16238424
C        1.42943644       1.99685548      -0.43047084
C        0.86414975       0.86414975      -0.86414975
C        1.12345235       0.47201206      -2.27398349
O        0.62598435      -0.53001739      -2.77974201
C        2.02309847       1.34813353      -3.06930081
C        2.55378615       2.52467568      -2.49980211
C        3.38127911       3.31184196      -3.32541143
C        3.68889110       2.96159305      -4.65965878
C        3.15142964       1.77148252      -5.16818623
C        2.32129625       0.97274795      -4.38559290
C        4.53246838       3.83446580      -5.50345323
C        5.72972163       4.37805581      -5.02107913
C        6.50380480       5.21497894      -5.82409719
C        6.09371028       5.51474349      -7.13077789
C        4.90291322       4.98528437      -7.66826987
C        4.14329038       4.15223224      -6.82444959
N        4.52694283       5.30745491      -8.99373436
C        3.31005298       4.72660457      -9.58853273
C        3.58797966       3.34447545     -10.16339142
C        5.36454553       6.11609714      -9.74906059
C        6.51084949       6.67865068      -9.34932436
C        6.94906123       6.41047762      -7.95322259
O        7.97308377       6.89734471      -7.48037314
H        4.59013783       4.68804197       0.50593384
H        4.89377206       3.49133709      -0.76387535
H        4.16521469       2.98761704       0.76615827
H        2.81541023       4.91720112      -1.22420176
H        2.15835385       4.38891164       0.29171095
H        1.26872474       2.31930892       0.59596752
H        3.80129596       4.23974912      -2.94868491
H        3.37778826       1.44935317      -6.18297984
H        1.90750485       0.05677053      -4.80360068
H        6.07989030       4.14853310      -4.01729135
H        7.43019873       5.62954192      -5.43121058
H        3.20756146       3.73039111      -7.17762264
H        2.95280189       5.37303982     -10.40109030
H        2.47905020       4.69768682      -8.87585649
H        4.35471848       3.39239183     -10.94428641
H        2.67763232       2.92971190     -10.60767270
H        3.93847701       2.64777635      -9.39558108
H        5.00926255       6.28162476     -10.76357748
C        7.31648242       7.51242053     -10.20336382
C        7.99120001       8.21070278     -10.91862188
Br       9.08216128       9.33976611     -12.07513366
C       -1.31463987      -1.30758213      -5.33956568
C       -2.31373977      -0.76201176      -4.32898959
N       -2.02309475      -1.25996218      -2.97286570
C       -1.22197126      -0.52627357      -2.10851793
C       -0.86414975      -0.86414975      -0.86414975
C       -1.36387653      -2.16296104      -0.34261033
O       -1.12151288      -2.55091814       0.79672204
C       -2.18256279      -2.99566379      -1.26230624
C       -2.49976269      -2.52474892      -2.55375233
C       -3.29721476      -3.36423044      -3.35708729
C       -3.76451755      -4.62473620      -2.92088918
C       -3.40237266      -5.05230641      -1.63641932
C       -2.62394186      -4.24583800      -0.80985724
C       -4.62921072      -5.45877980      -3.78239689
C       -4.32614616      -5.66921856      -5.13349185
C       -5.16301817      -6.44324215      -5.93662061
C       -6.31631847      -7.02798246      -5.39493073
C       -6.66123903      -6.85631475      -4.03891367
C       -5.79728372      -6.06067285      -3.26201564
N       -7.83084379      -7.46806757      -3.52922073
C       -8.18280125      -7.33840771      -2.10398132
C       -7.45420451      -8.37805617      -1.26358585
C       -8.59714459      -8.25631940      -4.37623926
C       -8.37529488      -8.48836561      -5.67516403
C       -7.18037218      -7.84640842      -6.28598084
O       -6.89982815      -7.97597833      -7.47499514
H       -1.52869273      -0.90777231      -6.33578092
H       -1.35145214      -2.39963863      -5.39789374
H       -0.29141902      -1.02267302      -5.07258143
H       -3.34297889      -0.98058248      -4.63325175
H       -2.25037735       0.33420532      -4.33938252
H       -0.87532495       0.41430439      -2.53104559
H       -3.59139669      -3.04561165      -4.35272166
H       -3.72038319      -6.02477725      -1.26496083
H       -2.36161301      -4.59390380       0.18764074
H       -3.42910501      -5.24136408      -5.57524566
H       -4.91211486      -6.59400480      -6.98483157
H       -6.02165740      -5.87813674      -2.21578107
H       -9.26328002      -7.48705413      -1.97659786
H       -7.99899218      -6.32687205      -1.72672928
H       -7.71479663      -9.39267826      -1.58392182
H       -7.73123923      -8.27403125      -0.20974644
H       -6.36745620      -8.27393339      -1.34044485
H       -9.45663483      -8.70988147      -3.88794848
C       -9.23082656      -9.31936297      -6.48207725
C       -9.94733435     -10.01532325      -7.15786706
Br     -11.10586684     -11.14063217      -8.25056204
C       -5.31390120       1.00315257       1.64473391
C       -4.43572630       2.02811214       0.94090268
N       -3.02562738       1.88581604       1.34447921
C       -2.15648246       1.09522415       0.60505615
C       -0.86414975       0.86414975       0.86414975
C       -0.28753719       1.50968886       2.07222185
O        0.89464195       1.38940173       2.38094920
C       -1.20549266       2.32174680       2.91329335
C       -2.55147075       2.49768509       2.52910809
C       -3.35152094       3.29820291       3.36880865
C       -2.85993713       3.90172891       4.54847689
C       -1.52047355       3.67696913       4.89365570
C       -0.69639060       2.89990785       4.08333865
C       -3.72383303       4.76410110       5.38245328
C       -5.02449200       4.37627300       5.72809156
C       -5.83269506       5.21048760       6.49969827
C       -5.34595979       6.44709406       6.94617781
C       -4.04092164       6.88013303       6.63541278
C       -3.25817999       6.01517474       5.84661748
N       -3.58525400       8.13272867       7.11014943
C       -2.20878882       8.58162399       6.83477747
C       -1.23253731       8.00976146       7.85354776
C       -4.43005134       8.89463311       7.90501880
C       -5.68401294       8.59333049       8.26148109
C       -6.24035852       7.30524095       7.76716197
O       -7.38812499       6.94553316       8.01714347
H       -6.35243955       1.10537529       1.31443112
H       -5.29057923       1.12668440       2.73172089
H       -4.98496326      -0.01664509       1.41835530
H       -4.80732761       3.04545328       1.10403222
H       -4.52541944       1.87254638      -0.14241128
H       -2.61987828       0.63942028      -0.26723241
H       -4.38992195       3.48687791       3.11293014
H       -1.10295248       4.10305015       5.80411864
H        0.34346863       2.74548878       4.36585591
H       -5.42128654       3.41511622       5.40931199
H       -6.84142065       4.89287853       6.75665206
H       -2.25165022       6.30361310       5.56031188
H       -2.16124801       9.67735612       6.88832787
H       -1.89673230       8.34343112       5.81243009
H       -1.49424092       8.32889224       8.86826355
H       -0.21679841       8.35768103       7.64053748
H       -1.22591844       6.91543232       7.84048369
H       -3.98189208       9.82423128       8.24834142
C       -6.49313785       9.45056274       9.08856619
C       -7.17077996      10.16849475       9.78124996
Br      -8.26646994      11.32933008      10.90126103
C        0.24654983      -2.82665426       4.88858359
C        1.19494707      -1.69678927       4.51300479
N        1.48381531      -1.70409490       3.06801243
C        0.72486546      -0.93896969       2.19292760
C        0.86414975      -0.86414975       0.86414975
C        1.93564305      -1.68781396       0.24599089
O        2.16848256      -1.66649920      -0.95927279
C        2.73287859      -2.55704244       1.15061178
C        2.49489651      -2.54230359       2.54106383
C        3.30664564      -3.37927546       3.33261140
C        4.31232297      -4.20971917       2.78810079
C        4.49221979      -4.20051898       1.39835962
C        3.71595339      -3.37904909       0.58463463
C        5.16629776      -5.04600959       3.65808007
C        4.61906804      -5.82265355       4.68713497
C        5.44116454      -6.59101972       5.51069667
C        6.82866975      -6.60034723       5.31021468
C        7.42897426      -5.84517583       4.28231737
C        6.56774335      -5.07468753       3.47754133
N        8.83266929      -5.88623057       4.10923223
C        9.47338880      -5.14036595       3.01143553
C        9.44140151      -5.93889395       1.71555108
C        9.58588386      -6.70246091       4.94135848
C        9.13269197      -7.45710349       5.94902906
C        7.66836566      -7.43409040       6.21030538
O        7.15352136      -8.07186294       7.12541732
H        0.02199790      -2.79095746       5.95929060
H        0.67572477      -3.80809984       4.66515990
H       -0.69834733      -2.74394335       4.34107745
H        2.11029353      -1.73309447       5.11342511
H        0.72244877      -0.74460209       4.78850369
H       -0.04942914      -0.35536281       2.68613248
H        3.18398789      -3.39420489       4.41153721
H        5.23961269      -4.83927478       0.93123381
H        3.87848165      -3.38111880      -0.49172439
H        3.54462402      -5.84702895       4.85406179
H        4.99789203      -7.18664079       6.30641842
H        6.97496240      -4.45863600       2.68197680
H       10.52209289      -4.93822574       3.26661336
H        9.02855141      -4.14898868       2.87505342
H        9.97061334      -6.89121552       1.82956785
H        9.92698559      -5.37571174       0.91231959
H        8.41730262      -6.16314919       1.40138263
H       10.64901796      -6.69328609       4.71216073
C        9.99183851      -8.27252143       6.76790683
C       10.71137374      -8.95543396       7.45371696
Br      11.87480135     -10.05964576       8.56261394
