186
Properties=species:S:1:pos:R:3 pbc="F F F"
C        1.79169433       1.79169433      -1.79169433
C        1.38064265       3.08155795      -2.11100269
C        2.19608596       3.88843326      -2.90867013
C        3.41446719       3.41336403      -3.40806517
C        3.81871604       2.10922852      -3.07650937
C        3.00696908       1.30257374      -2.26423415
C        5.13490058       1.57926293      -3.58099695
C        5.56945663       2.32459596      -4.83945193
C        5.56617572       3.83541223      -4.57218800
H        6.28340015       4.04160103      -3.76633383
N        4.23903480       4.27350611      -4.11953472
C        6.01046798       4.63425545      -5.83537251
H        6.92311380       4.16915060      -6.23164665
C        6.33058391       6.09346183      -5.48676717
C        6.76543019       6.83864291      -6.74520875
C        5.74156938       6.68001350      -7.83820317
C        4.86894714       5.57890759      -7.82721364
N        4.97989538       4.57050336      -6.88035213
C        3.94067547       5.44468391      -8.86628603
C        3.86208477       6.39333017      -9.88916076
C        4.73061901       7.47976049      -9.88733166
C        5.67262304       7.62637652      -8.87223850
H        0.44033898       3.47516866      -1.73575098
H        1.87984946       4.90576722      -3.12547207
H        3.32820981       0.29670537      -2.00589381
H        5.88847496       1.69300408      -2.79255936
H        5.04890578       0.51143039      -3.81364023
H        6.57035565       1.99060686      -5.13654412
H        4.88776124       2.07552466      -5.66316997
H        3.77915686       4.98789039      -4.67757973
H        7.12913376       6.14190573      -4.73749905
H        5.45193189       6.59048734      -5.05541119
H        7.72767363       6.45254759      -7.10241598
H        6.89743689       7.89935434      -6.50125702
H        4.12863613       4.06402167      -6.65216074
H        3.27849751       4.58291697      -8.89508168
H        3.13291543       6.26469450     -10.68400047
H        6.35467730       8.47282125      -8.87857179
C        4.66104346       8.45396248     -10.94548558
C        4.60277394       9.26985665     -11.83168948
Br       4.50855705      10.58908852     -13.26460625
C       -1.79169433      -1.79169433      -1.79169433
C       -3.12913763      -1.46106401      -1.98300165
C       -3.92893665      -2.26454665      -2.79970607
C       -3.41045808      -3.40955541      -3.41588291
C       -2.05744884      -3.73119565      -3.21580944
C       -1.24961990      -2.91746406      -2.40669302
C       -1.46663890      -4.94453826      -3.88398328
C       -2.55551850      -5.95977254      -4.21821348
C       -3.66536034      -5.27874618      -5.02966943
H       -3.22501848      -4.90317469      -5.96314184
N       -4.20933728      -4.13057368      -4.29216467
C       -4.79743079      -6.28627445      -5.39639069
H       -4.33026791      -7.19544171      -5.79820142
C       -5.72697771      -5.71113557      -6.47269964
C       -6.81563782      -6.72654592      -6.80709813
C       -7.52765474      -7.17429165      -5.55783966
C       -6.88560886      -7.07759384      -4.31186566
N       -5.56598042      -6.66249657      -4.20227387
C       -7.56235461      -7.52006006      -3.16923074
C       -8.86000285      -8.03136860      -3.25320425
C       -9.48504763      -8.12004774      -4.49261578
C       -8.82590529      -7.70012184      -5.64521093
H       -3.55631756      -0.57750059      -1.51744048
H       -4.96437605      -1.97891280      -2.96779990
H       -0.20190924      -3.16798102      -2.26091873
H       -0.94788575      -4.62904163      -4.79711102
H       -0.73033577      -5.41890974      -3.22473089
H       -2.12084298      -6.79048675      -4.78617690
H       -2.95854607      -6.38028473      -3.28762506
H       -5.20570296      -4.14731371      -4.09161032
H       -5.15999061      -5.46945557      -7.37909237
H       -6.19293497      -4.77997055      -6.12492489
H       -6.37918219      -7.60366806      -7.29978695
H       -7.52659925      -6.26738906      -7.50405994
H       -5.29951777      -6.21692857      -3.32837220
H       -7.07167330      -7.48510813      -2.19971472
H       -9.36221512      -8.36848750      -2.35090779
H       -9.31500685      -7.77817819      -6.61288530
C      -10.81800723      -8.65686082      -4.58562347
C      -11.93436089      -9.10644177      -4.66351741
Br     -13.73941035      -9.83337615      -4.78946532
C       -1.79169433       1.79169433       1.79169433
C       -1.36737951       3.07114183       2.13468194
C       -2.18269222       3.87826430       2.93223284
C       -3.41439277       3.41345267       3.40805096
C       -3.83193166       2.11980991       3.05271236
C       -3.02010698       1.31316145       2.24050855
C       -5.16224610       1.60141189       3.53150247
C       -5.60404831       2.33530586       4.79415035
C       -5.57615911       3.84947511       4.54814173
H       -6.27911147       4.07679815       3.73542539
N       -4.23688517       4.27514987       4.12004059
C       -6.02702284       4.63693995       5.81613315
H       -6.95146535       4.17923329       6.19321241
C       -6.32204156       6.10516174       5.48360962
C       -6.76413585       6.83890803       6.74623798
C       -5.75797084       6.65087515       7.85094005
C       -4.90057099       5.53791336       7.83658402
N       -5.01216456       4.54433518       6.87425112
C       -3.98888442       5.37636490       8.88639610
C       -3.91153198       6.30959999       9.92344374
C       -4.76486779       7.40800882       9.92483454
C       -5.69044874       7.58180838       8.89898095
H       -0.41656633       3.45669050       1.77800179
H       -1.85550261       4.88797843       3.16760771
H       -3.35155976       0.31555446       1.96369477
H       -5.90306210       1.73657369       2.73440261
H       -5.09427394       0.52936855       3.75033391
H       -6.61352710       2.01129534       5.07268419
H       -4.93746054       2.06535946       5.62363586
H       -3.77504494       4.97524835       4.69433369
H       -7.10927470       6.17512780       4.72413605
H       -5.43065410       6.59574347       5.07143285
H       -7.73652806       6.46142976       7.08467937
H       -6.87805100       7.90463219       6.51536507
H       -4.16486935       4.02918154       6.65076765
H       -3.33913977       4.50509347       8.91226292
H       -3.19541167       6.15979992      10.72639882
H       -6.36076942       8.43755375       8.90774717
C       -4.69666987       8.36643372      10.99738793
C       -4.63955412       9.16911457      11.89565139
Br      -4.54720277      10.46698161      13.34806743
C        1.79169433      -1.79169433       1.79169433
C        3.09129172      -1.39413645       2.08777512
C        3.89030962      -2.19868714       2.90419260
C        3.41007396      -3.40990620       3.41591623
C        2.09492259      -3.79888391       3.11064743
C        1.28679320      -2.98509271       2.30189107
C        1.54388212      -5.08585260       3.66542574
C        2.67344256      -6.05305837       4.00700359
C        3.68658097      -5.35985278       4.92734220
H        3.16774442      -5.07198351       5.85160707
N        4.19931232      -4.13618086       4.29658245
C        4.85671746      -6.31886431       5.30451417
H        4.42539546      -7.27834289       5.62017269
C        5.68110484      -5.75893850       6.47076959
C        6.81044779      -6.72634364       6.81249043
C        7.62352573      -7.04954873       5.58671159
C        7.05272254      -6.91207862       4.31026720
N        5.71821353      -6.57095181       4.14158553
C        7.82391377      -7.23897246       3.18875919
C        9.14422814      -7.67562069       3.32472688
C        9.69797736      -7.80570569       4.59402810
C        8.94516538      -7.50084377       5.72522892
H        3.48825941      -0.45848652       1.70451270
H        4.89334780      -1.86263256       3.15510839
H        0.26794038      -3.28833326       2.07453536
H        0.95200728      -4.86124025       4.56079087
H        0.88045232      -5.56047634       2.93304774
H        2.25946485      -6.94307017       4.49497162
H        3.15781273      -6.38812385       3.08051928
H        5.20496195      -4.08008048       4.15958456
H        5.04631347      -5.61032773       7.35189735
H        6.10656704      -4.78107915       6.21018422
H        6.40219603      -7.65787189       7.22256927
H        7.44733951      -6.27081430       7.57989444
H        5.47682470      -6.08718754       3.28080630
H        7.39121274      -7.17160328       2.19368014
H        9.72035875      -7.92346014       2.43779151
H        9.37916313      -7.61112785       6.71577936
C       11.05455595      -8.26621409       4.73972148
C       12.19069051      -8.65188987       4.86173969
Br      14.02772401      -9.27549500       5.05903281
C       -0.00445707       0.01189536      -1.78238275
H       -0.66409135       0.67374010      -2.43557963
H        0.65740317      -0.63156657      -2.45157240
C       -0.90989263      -0.90692880      -0.91072765
C        0.90977584       0.90977584      -0.90977584
C       -0.00465871       1.77757030       0.00794375
H       -0.66225468       2.44313916      -0.64384735
H        0.64322798       2.43503045       0.67728295
C       -1.78241447       0.00034974      -0.00472694
H       -2.45427497      -0.65498947       0.64260836
H       -2.43311707       0.67328779      -0.65473579
C       -0.91132561       0.90220522       0.91563759
C       -0.01476271      -0.02253852       1.78660255
H       -0.67934791      -0.69751639       2.42135241
H        0.63392994       0.61504881       2.47327442
C        0.01484550      -1.77751727      -0.01636693
H        0.67870853      -2.42144646      -0.68295456
H       -0.62264859      -2.45592969       0.64226336
C        1.78714474       0.01002794       0.00389507
H        2.44202412       0.67113390       0.66197326
H        2.45385902      -0.65136977      -0.64189061
C        0.91606151      -0.90478549       0.90901405
