157
Properties=species:S:1:pos:R:3 pbc="F F F"
C        0.00000000       0.00000000       0.00000000
C        0.88179030       0.88179030      -0.88179030
C        0.47073862       2.17165393      -1.20109866
C        1.28618194       2.97852924      -1.99876611
C        2.50456317       2.50346001      -2.49816115
C        2.90881202       1.19932449      -2.16660535
C        2.09706506       0.39266972      -1.35433013
C        4.22499655       0.66935890      -2.67109293
C        4.65955261       1.41469194      -3.92954790
C        4.65627170       2.92550821      -3.66228397
H        5.37349612       3.13169701      -2.85642980
N        3.32913078       3.36360209      -3.20963070
C        5.10056395       3.72435143      -4.92546849
H        6.01320978       3.25924658      -5.32174262
C        5.42067989       5.18355781      -4.57686315
C        5.85552617       5.92873889      -5.83530473
C        4.83166535       5.77010947      -6.92829915
C        3.95904311       4.66900357      -6.91730961
N        4.06999135       3.66059934      -5.97044810
C        3.03077144       4.53477989      -7.95638200
C        2.95218075       5.48342615      -8.97925674
C        3.82071499       6.56985647      -8.97742763
C        4.76271902       6.71647250      -7.96233448
Br       3.72939015       7.84859351     -10.36635993
H       -0.46956504       2.56526464      -0.82584696
H        0.96994543       3.99586319      -2.21556805
H        2.41830579      -0.61319865      -1.09598978
H        4.97857094       0.78310005      -1.88265534
H        4.13900176      -0.39847364      -2.90373620
H        5.66045163       1.08070283      -4.22664010
H        3.97785722       1.16562063      -4.75326594
H        2.86925284       4.07798637      -3.76767571
H        6.21922974       5.23200171      -3.82759503
H        4.54202786       5.68058332      -4.14550716
H        6.81776961       5.54264356      -6.19251195
H        5.98753286       6.98945031      -5.59135300
H        3.21873211       3.15411765      -5.74225671
H        2.36859349       3.67301295      -7.98517765
H        2.22301141       5.35479048      -9.77409645
H        5.44477327       7.56291723      -7.96866777
C       -0.88179030      -0.88179030      -0.88179030
C       -2.17930644      -0.48124941      -1.18293536
C       -2.97828905      -1.28585204      -1.99933619
C       -2.50015203      -2.50001963      -2.50601266
C       -1.18708378      -2.89199931      -2.19565877
C       -0.37893935      -2.07820628      -1.38691927
C       -0.63824065      -4.18225538      -2.74495235
C       -1.76966321      -5.14710842      -3.08702082
C       -2.77798016      -4.45364077      -4.01244295
H       -2.25553507      -4.17008086      -4.93600700
N       -3.28892994      -3.22656801      -3.38686561
C       -3.94984789      -5.41028511      -4.39025085
H       -3.52045603      -6.37198300      -4.70175994
C       -4.76908117      -4.85139299      -5.56062669
C       -5.90028641      -5.81644646      -5.90283691
C       -6.71797395      -6.13356462      -4.67853540
C       -6.15056730      -5.99398247      -3.40080652
N       -4.81555346      -5.65632986      -3.22915548
C       -6.92606893      -6.31522563      -2.28063878
C       -8.24727108      -6.74834336      -2.41924919
C       -8.79762314      -6.88056992      -3.68980602
C       -8.04053754      -6.58133270      -4.81965576
Br     -10.57948792      -7.48029496      -3.88456072
H       -2.57461687       0.45671967      -0.80364935
H       -3.97956690      -0.94756234      -2.25424744
H        0.63832122      -2.38379975      -1.15561839
H       -0.04303300      -3.96208306      -3.63921027
H        0.02158372      -4.65666301      -2.00918503
H       -1.35689467      -6.03980327      -3.57109662
H       -2.25778984      -5.47796016      -2.16099380
H       -4.29481109      -3.16706330      -3.25304052
H       -4.13122684      -4.70730686      -6.44029278
H       -5.19239434      -3.87149649      -5.30422752
H       -5.49359982      -6.75040764      -6.30891766
H       -6.53352565      -5.36131677      -6.67349376
H       -4.57528549      -5.17071725      -2.36910373
H       -6.49613453      -6.24617304      -1.28447652
H       -8.82677893      -6.99181468      -1.53330473
H       -8.47191035      -6.69328242      -5.81116550
C       -0.88179030       0.88179030       0.88179030
C       -0.50294708       2.19359811       1.14694602
C       -1.31867079       2.99990589       1.94490062
C       -2.50472843       2.50325359       2.49820231
C       -2.87669765       1.17700499       2.22103923
C       -2.06513236       0.37032790       1.40860465
C       -4.15851935       0.62260636       2.78432267
C       -4.57728015       1.39433252       4.03217977
C       -4.63137346       2.89504794       3.71764247
H       -5.37985511       3.05238111       2.92938672
N       -3.33400058       3.35969291       3.20867007
C       -5.06144677       3.72007738       4.96885972
H       -5.94564155       3.23963629       5.40892113
C       -5.43948836       5.15644391       4.58516857
C       -5.85853459       5.92800873       5.83302647
C       -4.79625467       5.83712355       6.89669575
C       -3.88917017       4.76418356       6.89200257
N       -3.99704538       3.72262702       5.98136640
C       -2.92486635       4.69292968       7.90413731
C       -2.84499163       5.67623737       8.89363463
C       -3.74791903       6.73422953       8.88585051
C       -4.72559003       6.81820933       7.89772664
Br      -3.65453016       8.05955866      10.23025477
H        0.41185522       2.60416789       0.72923388
H       -1.02892972       4.03316142       2.11928554
H       -2.36154855      -0.65297749       1.19252586
H       -4.93977000       0.68700932       2.01754701
H       -4.03068939      -0.43389585       3.04747078
H       -5.55700311       1.03888708       4.37190437
H       -3.86234022       1.19362406       4.84077951
H       -2.88022821       4.10588047       3.72880623
H       -6.26232187       5.15547377       3.86103083
H       -4.59138913       5.66656843       4.11016079
H       -6.79606453       5.52367280       6.23318779
H       -6.03245379       6.97558570       5.56029668
H       -3.13739919       3.23599311       5.74171417
H       -2.23452152       3.85376664       7.93849593
H       -2.08743727       5.59639631       9.66806476
H       -5.43419114       7.64258049       7.89958664
C        0.88179030      -0.88179030       0.88179030
C        2.15835216      -0.45399343       1.23114562
C        2.95700987      -1.25909185       2.04737557
C        2.49998460      -2.50018807       2.50601165
C        1.20789432      -2.91960032       2.14724721
C        0.39960426      -2.10579474       1.33866591
C        0.68121529      -4.23992220       2.64431088
C        1.82989261      -5.18223624       2.99166360
C        2.79164351      -4.48775346       3.96466691
H        2.23568667      -4.24553567       4.88040059
N        3.28440430      -3.22943107       3.38852819
C        3.97949990      -5.42176269       4.34912127
H        3.56937812      -6.40362504       4.62119581
C        4.74934509      -4.87406255       5.55769321
C        5.89780706      -5.81658701       5.90517572
C        6.75813002      -6.07545469       4.69648925
C        6.22284435      -5.91512652       3.40738542
N        4.88399615      -5.61008879       3.20695385
C        7.03822628      -6.18228479       2.30142228
C        8.36693843      -6.58214761       2.46577759
C        8.88517217      -6.73539627       3.74743064
C        8.08855324      -6.48999019       4.86298257
Br      10.67739512      -7.29048340       3.97646508
H        2.53699379       0.50515436       0.88970712
H        3.94065011      -0.90043934       2.34028723
H       -0.60160423      -2.43290166       1.06979949
H        0.05519322      -4.06223092       3.52690219
H        0.05608994      -4.71123817       1.87693621
H        1.42958069      -6.09964346       3.43857042
H        2.35298567      -5.47259534       2.07116277
H        4.29150543      -3.13804556       3.28536392
H        4.08330340      -4.77316800       6.42235507
H        5.15133164      -3.87576884       5.34101786
H        5.50693516      -6.77281737       6.27317260
H        6.49594821      -5.36627791       6.70611006
H        4.65398579      -5.10687099       2.35424968
H        6.63446687      -6.09667873       1.29563848
H        8.97771041      -6.78379632       1.59039161
H        8.49511194      -6.61828515       5.86296118
