165
Properties=species:S:1:pos:R:3 pbc="F F F"
C        0.00000000       0.00000000       0.00000000
C        0.88179030       0.88179030      -0.88179030
C        0.47073862       2.17165393      -1.20109866
C        1.28618194       2.97852924      -1.99876611
C        2.50456317       2.50346001      -2.49816115
C        2.90881202       1.19932449      -2.16660535
C        2.09706506       0.39266972      -1.35433013
C        4.22499655       0.66935890      -2.67109293
C        4.65955261       1.41469194      -3.92954790
C        4.65627170       2.92550821      -3.66228397
H        5.37349612       3.13169701      -2.85642980
N        3.32913078       3.36360209      -3.20963070
C        5.10056395       3.72435143      -4.92546849
H        6.01320978       3.25924658      -5.32174262
C        5.42067989       5.18355781      -4.57686315
C        5.85552617       5.92873889      -5.83530473
C        4.83166535       5.77010947      -6.92829915
C        3.95904311       4.66900357      -6.91730961
N        4.06999135       3.66059934      -5.97044810
C        3.03077144       4.53477989      -7.95638200
C        2.95218075       5.48342615      -8.97925674
C        3.82071499       6.56985647      -8.97742763
C        4.76271902       6.71647250      -7.96233448
H       -0.46956504       2.56526464      -0.82584696
H        0.96994543       3.99586319      -2.21556805
H        2.41830579      -0.61319865      -1.09598978
H        4.97857094       0.78310005      -1.88265534
H        4.13900176      -0.39847364      -2.90373620
H        5.66045163       1.08070283      -4.22664010
H        3.97785722       1.16562063      -4.75326594
H        2.86925284       4.07798637      -3.76767571
H        6.21922974       5.23200171      -3.82759503
H        4.54202786       5.68058332      -4.14550716
H        6.81776961       5.54264356      -6.19251195
H        5.98753286       6.98945031      -5.59135300
H        3.21873211       3.15411765      -5.74225671
H        2.36859349       3.67301295      -7.98517765
H        2.22301141       5.35479048      -9.77409645
H        5.44477327       7.56291723      -7.96866777
C        3.75113944       7.54405846     -10.03558155
C        3.69286991       8.35995263     -10.92178546
Br       3.59865302       9.67918450     -12.35470223
C       -0.88179030      -0.88179030      -0.88179030
C       -2.22581721      -0.56633259      -1.05134141
C       -3.02579086      -1.36959501      -1.86809141
C       -2.50063717      -2.49958108      -2.50596607
C       -1.14104840      -2.80595927      -2.32773420
C       -0.33327918      -1.99224540      -1.51854032
C       -0.54337239      -4.00264020      -3.01943579
C       -1.62327725      -5.02768938      -3.35282582
C       -2.75245426      -4.35084500      -4.14076462
H       -2.32935074      -3.95741766      -5.07485453
N       -3.30154635      -3.21960726      -3.38120995
C       -3.87607027      -5.36833586      -4.50597773
H       -3.40246580      -6.26598051      -4.92575266
C       -4.82709331      -4.79154790      -5.56245963
C       -5.90677864      -5.81676805      -5.89602310
C       -6.59641748      -6.29003440      -4.64362209
C       -5.93934015      -6.20108791      -3.40492823
N       -4.62388687      -5.77011856      -3.30703336
C       -6.59518561      -6.66722652      -2.25952121
C       -7.88707560      -7.19443419      -2.33335384
C       -8.52717254      -7.27522489      -3.56560165
C       -7.88876577      -6.83172504      -4.72103519
H       -2.65827404       0.30541072      -0.56868324
H       -4.06697554      -1.09545317      -2.01894796
H        0.71942479      -2.23082496      -1.38969675
H       -0.04082292      -3.66850980      -3.93499361
H        0.20764247      -4.47580386      -2.37610293
H       -1.18536023      -5.84516375      -3.93727059
H       -2.00852707      -5.46552121      -2.42269551
H       -4.29488492      -3.25206183      -3.16796817
H       -4.27527068      -4.53067423      -6.47288156
H       -5.30048923      -3.87119150      -5.19643761
H       -5.46548838      -6.68159674      -6.40584000
H       -6.63275476      -5.35799309      -6.57758832
H       -4.35175664      -5.33247134      -2.43087849
H       -6.09228318      -6.63841637      -1.29608454
H       -8.37294870      -7.54982480      -1.42912484
H       -8.38950459      -6.90363538      -5.68321830
C       -9.85415545      -7.82828010      -3.64834389
C      -10.96550364      -8.29146384      -3.71764052
Br     -12.76245968      -9.04039276      -3.82968730
C       -0.88179030       0.88179030       0.88179030
C       -0.47654000       2.17594033       1.19101088
C       -1.29203748       2.98271017       1.98872964
C       -2.50459447       2.50342195       2.49816790
C       -2.90302971       1.19496789       2.17674426
C       -2.09131618       0.38830979       1.36443893
C       -4.21302976       0.66023698       2.69218165
C       -4.64456129       1.41046200       3.94876916
C       -4.65185224       2.91965403       3.67255761
H       -5.37504559       3.11679716       2.86978018
N       -3.33004284       3.36288974       3.20943098
C       -5.09341008       3.72335790       4.93361588
H       -6.00091176       3.25522869       5.33805853
C       -5.42426055       5.17854470       4.57829559
C       -5.85608147       5.92861598       5.83487234
C       -4.82484691       5.78255326       6.92267380
C       -3.94576785       4.68658288       6.91300557
N       -4.05631261       3.67192315       5.97280303
C       -3.01058329       4.56403868       7.94731137
C       -2.93158964       5.51920347       8.96407052
C       -3.80656935       6.60044669       8.96098305
C       -4.75541768       6.73544426       7.95066406
H        0.45916836       2.57286664       0.80784827
H       -0.98058362       4.00316922       2.19762384
H       -2.40808805      -0.62096088       1.11396974
H       -4.97191862       0.76482432       1.90758339
H       -4.11930720      -0.40566482       2.93062194
H       -5.64168004       1.07233162       4.25378290
H       -3.95653485       1.17033400       4.76987494
H       -2.87113109       4.08329022       3.76049360
H       -6.22750300       5.21780412       3.83351935
H       -4.55114897       5.67818359       4.13878579
H       -6.81388030       5.53896762       6.20007720
H       -5.99583883       6.98705742       5.58543992
H       -3.20341923       3.16913713       5.74255011
H       -2.34313002       3.70639068       7.97726339
H       -2.19697846       5.39961586       9.75530401
H       -5.44244755       7.57786207       7.95604865
C       -3.73653391       7.58132292      10.01292261
C       -3.67787923       8.40280677      10.89392200
Br      -3.58303958       9.73107667      12.31842349
C        0.88179030      -0.88179030       0.88179030
C        2.18813008      -0.49429630       1.16106483
C        2.98726673      -1.29867484       1.97753571
C        2.50022978      -2.49994457       2.50600996
C        1.17833066      -2.87879494       2.21761626
C        0.37025086      -2.06501048       1.40880357
C        0.62017763      -4.15467696       2.79059379
C        1.74349043      -5.12967012       3.13063190
C        2.77253323      -4.43754741       4.03398324
H        2.26579308      -4.13542293       4.96040693
N        3.29099980      -3.22532372       3.38604004
C        3.93685344      -5.40440026       4.40913016
H        3.49925519      -6.35637514       4.73856864
C        4.77829880      -4.84123879       5.56156326
C        5.90139358      -5.81642773       5.90174847
C        6.69899443      -6.15978909       4.67129046
C        6.11688883      -6.02923575       3.39923171
N        4.78419509      -5.67651343       3.24033028
C        6.87360931      -6.37483990       2.27348413
C        8.19084187      -6.82325552       2.40076624
C        8.75589687      -6.94632505       3.66577717
C        8.01743309      -6.62283812       4.80125479
H        2.59046901       0.43352771       0.76460526
H        3.99601998      -0.97016961       2.21518709
H       -0.65375718      -2.36031503       1.19453907
H        0.03949464      -3.91536069       3.68947100
H       -0.05516294      -4.62986889       2.06955837
H        1.32563619      -6.01065841       3.63149996
H        2.21528002      -5.47866476       2.20279901
H        4.29573932      -3.18059696       3.23857863
H        4.15381211      -4.67762957       6.44738479
H        5.21076768      -3.87028343       5.28706723
H        5.48807945      -6.73975361       6.32509206
H        6.55035925      -5.35971855       6.65825838
H        4.53902712      -5.19888168       2.37719767
H        6.43170353      -6.31298126       1.28209929
H        8.75563708      -7.08555665       1.51070460
H        8.46016710      -6.72766503       5.78852613
C       10.10925164      -7.41886378       3.80266403
C       11.24268626      -7.81461497       3.91730677
Br      13.07535417      -8.45451118       4.10267440
