173
Properties=species:S:1:pos:R:3 pbc="F F F"
C        0.00000000       0.00000000       0.00000000
C        0.88184762       0.88184762      -0.88184762
C        0.54974383       2.21837903      -1.07746340
C        1.36364994       3.02420009      -1.87930545
C        2.52738328       2.51234213      -2.46670166
C        2.82324828       1.14501099      -2.30576420
C        2.00952144       0.34008345      -1.49258945
C        4.04472179       0.53836024      -2.94709775
C        4.61145470       1.42603832      -4.04767395
C        4.64972720       2.87595704      -3.56193179
H        5.21956460       2.93323577      -2.62397313
N        3.28725806       3.33556858      -3.31744879
C        5.30323136       3.71471827      -4.53893998
C        5.84186773       4.40603755      -5.34419378
C        6.46097642       5.20066268      -6.26977836
C        6.99960693       5.89198002      -7.07504003
C        7.65311695       6.73074319      -8.05204035
H        7.14828847       6.59022271      -9.01805027
C        9.12616051       6.33995556      -8.18471277
C        9.76198239       7.13896876      -9.31498176
C        9.37590107       8.59488843      -9.26308146
C        8.27255389       9.02226825      -8.49911922
N        7.56262784       8.13538150      -7.66978023
C        7.97228399      10.38925408      -8.45579631
C        8.69704510      11.30861959      -9.21937937
C        9.75137080      10.86703122     -10.01226141
C       10.09692245       9.51871434     -10.03615391
Br      10.72894004      12.10458961     -11.05422338
H       -0.33851307       2.64299907      -0.61879603
H        1.08194939       4.06125133      -2.04018660
H        2.25848108      -0.70823001      -1.34672915
H        4.80383137       0.39027424      -2.16899920
H        3.80231039      -0.44416557      -3.36873840
H        5.61128045       1.07060884      -4.32636077
H        3.98451606       1.34322005      -4.94692695
H        3.23978790       4.31550290      -3.05367120
H        9.23936123       5.26729974      -8.38564591
H        9.65902743       6.54338308      -7.24487501
H        9.43628085       6.73086764     -10.27992932
H       10.85187154       7.03396166      -9.25845199
H        6.60807203       8.44064192      -7.50218583
H        7.16408815      10.75030402      -7.82507280
H        8.43383137      12.36182948      -9.18172099
H       10.92937242       9.17940994     -10.64801140
C       -0.88184762      -0.88184762      -0.88184762
C       -0.44684308      -2.15156339      -1.24717979
C       -1.26025061      -2.95860984      -2.04829504
C       -2.52244502      -2.51824826      -2.46573378
C       -2.92813325      -1.21095239      -2.13493783
C       -2.11362980      -0.40588407      -1.32268047
C       -4.26213507      -0.67769140      -2.59035331
C       -4.85442334      -1.51151523      -3.71922839
C       -4.70385385      -2.99694625      -3.38681593
H       -5.16415278      -3.20237351      -2.41024720
N       -3.28584296      -3.33221987      -3.32221260
C       -5.37371994      -3.80316508      -4.38000458
C       -5.92584085      -4.46766437      -5.19859384
C       -6.56044923      -5.23145991      -6.13950832
C       -7.11256535      -5.89595592      -6.95810572
C       -7.78243623      -6.70217803      -7.95128623
H       -7.39732978      -6.41850373      -8.94072794
C       -9.29165569      -6.45723865      -7.90193450
C       -9.96386201      -7.20771908      -9.04435182
C       -9.43813828      -8.61343609      -9.18229658
C       -8.22521549      -8.99324753      -8.57547833
N       -7.51954732      -8.11946399      -7.72877827
C       -7.79377500     -10.31911143      -8.70444795
C       -8.50415192     -11.23283964      -9.48805250
C       -9.67292668     -10.83107794     -10.12665881
C      -10.14538537      -9.53028765      -9.97611768
Br     -10.63259277     -12.05991690     -11.19524337
H        0.52086736      -2.52224918      -0.92190022
H       -0.89990205      -3.94043562      -2.34304964
H       -2.44421003       0.59194944      -1.04471963
H       -4.94604826      -0.68450883      -1.73254772
H       -4.15956633       0.36037557      -2.92769246
H       -5.90714185      -1.23809615      -3.86301206
H       -4.33595935      -1.27848666      -4.66021706
H       -3.11824665      -4.32234482      -3.16837054
H       -9.52652411      -5.38817835      -7.97760443
H       -9.70129792      -6.80364661      -6.94234099
H       -9.78134826      -6.67804186      -9.98768770
H      -11.04682901      -7.22344423      -8.87401196
H       -6.52805407      -8.33743047      -7.68541525
H       -6.89330350     -10.65158096      -8.19458050
H       -8.13974763     -12.25143006      -9.58620416
H      -11.06582613      -9.22367835     -10.46728928
C       -0.88184762       0.88184762       0.88184762
C       -2.22969589       0.57636737       1.03952300
C       -3.03187566       1.38170715       1.85357267
C       -2.49114309       2.47751138       2.53777259
C       -1.13863582       2.80825033       2.32713732
C       -0.33292643       1.99268414       1.51658377
C       -0.51883935       3.99879782       3.01254261
C       -1.57179055       4.95434485       3.55903157
C       -2.66518749       4.15388021       4.26854833
H       -2.21134046       3.52126610       5.04416693
N       -3.34152167       3.30126304       3.29749071
C       -3.60514157       5.04544613       4.90630191
C       -4.37985917       5.78028164       5.43195826
C       -5.27034950       6.62491851       6.03614945
C       -6.04506990       7.35975930       6.56179779
C       -6.98502118       8.25131993       7.19955939
H       -7.35836618       8.95538830       6.44280697
C       -6.29831636       9.02820201       8.32431047
C       -7.26549182      10.05963487       8.89080622
C       -8.64021030       9.48252327       9.11113739
C       -9.02337754       8.27516357       8.49540024
N       -8.11135566       7.50610572       7.75032820
C      -10.29968931       7.76157795       8.75606712
C      -11.21180253       8.46927762       9.54396390
C      -10.83991202       9.68757139      10.10318003
C       -9.56085176      10.19605306       9.89488589
Br     -12.07250713      10.65346425      11.16178166
H       -2.66864525      -0.27817903       0.53281581
H       -4.08749633       1.14369218       1.95219881
H        0.71835567       2.23465990       1.38067600
H        0.10706207       3.63382029       3.83634659
H        0.12989982       4.54163790       2.31514514
H       -1.09681630       5.67293495       4.23849881
H       -2.00348616       5.53782847       2.73334843
H       -4.12424961       2.78985400       3.69485840
H       -5.39219285       9.53317914       7.96693490
H       -5.98325085       8.34128549       9.12274917
H       -7.35354652      10.90116723       8.19236406
H       -6.86246342      10.44841248       9.83340929
H       -8.57173077       6.91646578       7.06270323
H      -10.59612178       6.80136595       8.34197723
H      -12.20197287       8.05775990       9.71764906
H       -9.27018048      11.14291511      10.34369818
C        0.88184762      -0.88184762       0.88184762
C        2.22168986      -0.55707020       1.06682620
C        3.02372835      -1.36260605       1.88082108
C        2.49015599      -2.47828865       2.53798242
C        1.14693931      -2.82751536       2.29956880
C        0.34114544      -2.01187147       1.48917742
C        0.53587658      -4.03922581       2.95507739
C        1.59547687      -4.98639704       3.50329306
C        2.66371936      -4.18007673       4.24381995
H        2.18684277      -3.56790779       5.02202293
N        3.34157233      -3.30054347       3.29815962
C        3.60780233      -5.06664226       4.88244502
C        4.38592274      -5.79735665       5.40881967
C        5.28032453      -6.63725626       6.01383667
C        6.05844797      -7.36797575       6.54020327
C        7.00252792      -8.25453618       7.17883639
H        7.39980182      -8.93976675       6.41699289
C        6.31054253      -9.06107386       8.27921245
C        7.28532277     -10.08584206       8.84476808
C        8.64649910      -9.49010782       9.09726404
C        9.01958085      -8.26660708       8.50775343
N        8.10720625      -7.50028020       7.76030312
C       10.28277277      -7.73665668       8.79790492
C       11.19352189      -8.44235097       9.58917119
C       10.83281758      -9.67566111      10.12218474
C        9.56593856     -10.20142265       9.88442950
Br      12.06382755     -10.63873965      11.18518584
H        2.65461250       0.31281429       0.58148383
H        4.07350500      -1.10906492       2.00081740
H       -0.70361970      -2.26868301       1.33191691
H       -0.10935407      -3.69822815       3.77423073
H       -0.09230030      -4.58093596       2.23824756
H        1.12146430      -5.72381603       4.16296973
H        2.05020997      -5.54897972       2.67547337
H        4.10911936      -2.78309179       3.71675086
H        5.41887400      -9.57477255       7.89866033
H        5.97113662      -8.39273101       9.08341789
H        7.39871256     -10.91412245       8.13424281
H        6.87347084     -10.49672919       9.77408516
H        8.56889605      -6.89187936       7.09012437
H       10.56995269      -6.76499747       8.40451480
H       12.17376264      -8.01766740       9.78595180
H        9.28373015     -11.16021755      10.31284606
