186
Properties=species:S:1:pos:R:3 pbc="F F F"
C        1.76959025       1.76959025      -1.76959025
C        2.59093041       1.16800834      -2.77812218
H        2.44081370       0.13261156      -3.06678065
N        3.24082998       1.94834645      -3.72483423
C        2.56347380       2.01050017      -5.05304946
C        3.56872788       3.30271929      -3.37038896
C        2.65710162       3.99891095      -2.52173973
C        1.65283237       3.24552930      -1.72363485
O        0.80738074       3.82656644      -1.05231419
C        2.69004592       5.38840733      -2.39133170
C        3.64097282       6.10728195      -3.08994002
C        4.61703818       5.42283464      -3.81716323
C        4.68132486       4.00020263      -3.91106004
C        6.01157844       3.45755703      -4.40449222
C        7.15869781       4.07086349      -3.81659479
C        8.44610337       3.97397861      -4.34839657
C        8.64121179       3.27320406      -5.52332563
C        7.56788990       2.58264428      -6.08884353
C        6.27899905       2.56712995      -5.47750630
N        5.35097858       1.55919703      -5.91365243
C        5.46241886       0.43209111      -4.94207663
C        5.38368055       1.17956071      -7.24885168
H        4.61035783       0.47614478      -7.54128557
C        6.58780613       1.29970325      -8.01649449
C        7.79411554       1.87368297      -7.37728007
O        8.91058561       1.80475367      -7.87818673
H        2.51732861       1.00924219      -5.49603611
H        3.06538791       2.67343379      -5.76586361
H        1.53168684       2.37107421      -4.94579410
H        1.96844572       5.90532083      -1.76237534
H        3.66631344       7.19225432      -3.02574633
H        5.39293782       6.02810591      -4.29038319
H        7.03823817       4.69740124      -2.93028264
H        9.27475162       4.49466844      -3.87530061
H        9.62487104       3.25001491      -5.98766451
H        4.61342626      -0.25021556      -5.06234872
H        5.48765240       0.76004608      -3.89729615
H        6.37819880      -0.14648317      -5.12252850
C        6.65860592       0.70186060      -9.32461206
C        6.71790075       0.20116738     -10.42016051
Br       6.81377546      -0.60841121     -12.19156971
C       -1.76959025      -1.76959025      -1.76959025
C       -2.07566902      -3.10668566      -1.35470624
H       -1.87226142      -3.42932580      -0.33861869
N       -3.03316826      -3.85725258      -2.02358983
C       -4.36742371      -3.90273608      -1.35686364
C       -3.27890706      -3.55519718      -3.40773189
C       -3.17712267      -2.19014118      -3.81048845
C       -2.46203847      -1.20763350      -2.95232456
O       -2.43316087      -0.01561321      -3.23748729
C       -3.71382346      -1.73850592      -5.01745557
C       -4.34616664      -2.64026352      -5.85176463
C       -4.33342865      -3.99801073      -5.52559667
C       -3.72162139      -4.52302811      -4.34793803
C       -3.47540323      -6.02171910      -4.37650536
C       -2.93219835      -6.51168010      -5.60227766
C       -2.94071956      -7.85898001      -5.96877899
C       -3.52621048      -8.78497631      -5.12655469
C       -3.99228032      -8.36887998      -3.87821741
C       -3.86528605      -7.01664347      -3.44170578
N       -4.03086455      -6.75544123      -2.03752225
C       -2.66058512      -6.72870431      -1.44729717
C       -4.94938350      -7.52578715      -1.33692230
H       -5.09279513      -7.23365281      -0.30134024
C       -5.28076769      -8.84994547      -1.77329072
C       -4.65869138      -9.37662625      -3.00976095
O       -4.70612670     -10.55921756      -3.32818174
H       -4.27684084      -4.37405903      -0.37170705
H       -5.12010340      -4.45564612      -1.92893579
H       -4.75840979      -2.88823000      -1.20191537
H       -3.65264751      -0.68842099      -5.29507339
H       -4.79656703      -2.30502464      -6.78272242
H       -4.77792538      -4.68255430      -6.25094724
H       -2.52863614      -5.80589217      -6.33139374
H       -2.54476547      -8.16676850      -6.93318670
H       -3.60478059      -9.82645768      -5.43131218
H       -2.69391274      -6.28635282      -0.44529386
H       -1.94113933      -6.15877881      -2.04507649
H       -2.26243165      -7.74700382      -1.34480865
C       -6.06256077      -9.70468842      -0.91782939
C       -6.71731247     -10.42053564      -0.20138054
Br      -7.77599059     -11.57800005       0.95705667
C       -1.76959025       1.76959025       1.76959025
C       -2.16141899       3.06823947       1.30740247
H       -2.02291209       3.34905600       0.26823783
N       -3.12230948       3.80488996       1.98681123
C       -4.48736023       3.75354334       1.38611986
C       -3.28657558       3.56097123       3.39428932
C       -3.09773585       2.22410944       3.85590702
C       -2.37610352       1.23509495       3.01079805
O       -2.27422663       0.06152014       3.35051459
C       -3.55322778       1.80828787       5.10826930
C       -4.18941877       2.71948735       5.92928867
C       -4.26000235       4.05832624       5.53870746
C       -3.73185271       4.55238941       4.30834541
C       -3.55968237       6.06064713       4.25329819
C       -2.98395190       6.63646388       5.42574032
C       -3.04228995       7.99845019       5.72773842
C       -3.71266012       8.85235948       4.87272187
C       -4.21619951       8.35277248       3.67040572
C       -4.04275242       6.98799888       3.29288400
N       -4.26165793       6.64944370       1.91272640
C       -2.92136588       6.65845336       1.25676736
C       -5.24975967       7.33930973       1.22302355
H       -5.42748185       6.98935191       0.21095441
C       -5.62571542       8.66634718       1.61194127
C       -4.97262575       9.28308033       2.78937250
O       -5.06384841      10.47649942       3.05317817
H       -4.46736181       4.17886892       0.37637618
H       -5.23865357       4.29791208       1.96811966
H       -4.83413507       2.71512621       1.29929387
H       -3.42657405       0.77746966       5.43209819
H       -4.57774928       2.41010892       6.89645589
H       -4.70313007       4.75631994       6.25197691
H       -2.51144889       5.98794254       6.16653063
H       -2.61679165       8.37247862       6.65545041
H       -3.82854839       9.90284196       5.13116011
H       -2.98017008       6.16554606       0.27984327
H       -2.14675794       6.15393289       1.84430380
H       -2.57986978       7.68814346       1.08623088
C       -6.48899280       9.43917874       0.75690704
C       -7.21198761      10.08642517       0.04081586
Br      -8.38100907      11.13296790      -1.11704300
C        1.76959025      -1.76959025       1.76959025
C        2.95743492      -1.22331313       2.35631288
H        3.12801350      -0.15149739       2.36069502
N        3.66401133      -1.92958706       3.32041228
C        3.40079727      -1.50090194       4.72532423
C        3.57015551      -3.36433257       3.30734805
C        2.32332364      -3.93771419       2.91671448
C        1.32319954      -3.12202447       2.17677251
O        0.21434807      -3.56811555       1.90379774
C        2.01120239      -5.27116541       3.18741714
C        2.94057476      -6.06121376       3.83640627
C        4.20998482      -5.54399120       4.10306003
C        4.60953079      -4.21562946       3.76742728
C        6.11074302      -3.98380985       3.77907481
C        6.87630957      -5.01456037       3.15528616
C        8.25065545      -5.17753834       3.34028477
C        8.92435191      -4.32217041       4.19121916
C        8.23812270      -3.24553876       4.75571625
C        6.86422334      -2.99483012       4.46458183
N        6.34599209      -1.69254200       4.78529394
C        6.41820742      -0.88736885       3.53101033
C        6.84380150      -1.05463254       5.91365891
H        6.36154609      -0.11228196       6.15396013
C        8.16063029      -1.34415854       6.39921504
C        8.97526237      -2.36654293       5.70327328
O       10.17523183      -2.51322306       5.90507110
H        3.70517156      -0.45689225       4.86054310
H        3.92796636      -2.10657772       5.47014122
H        2.32886708      -1.56394478       4.95574330
H        1.04407990      -5.68377954       2.90828245
H        2.70732150      -7.09404369       4.08294890
H        4.93635226      -6.22733984       4.54773482
H        6.37149971      -5.75876350       2.53565885
H        8.77269572      -6.00515448       2.86687047
H        9.97994658      -4.48134017       4.40126370
H        5.81127161       0.01922796       3.63351576
H        6.06926567      -1.42993886       2.64579010
H        7.45094357      -0.57166155       3.33163901
C        8.73411897      -0.51973693       7.43122268
C        9.21441574       0.17071616       8.29552907
Br       9.99101499       1.28712042       9.69303940
C       -0.00445707       0.01189536      -1.78238275
H       -0.66409135       0.67374010      -2.43557963
H        0.65740317      -0.63156657      -2.45157240
C       -0.90989263      -0.90692880      -0.91072765
C        0.90977584       0.90977584      -0.90977584
C       -0.00465871       1.77757030       0.00794375
H       -0.66225468       2.44313916      -0.64384735
H        0.64322798       2.43503045       0.67728295
C       -1.78241447       0.00034974      -0.00472694
H       -2.45427497      -0.65498947       0.64260836
H       -2.43311707       0.67328779      -0.65473579
C       -0.91132561       0.90220522       0.91563759
C       -0.01476271      -0.02253852       1.78660255
H       -0.67934791      -0.69751639       2.42135241
H        0.63392994       0.61504881       2.47327442
C        0.01484550      -1.77751727      -0.01636693
H        0.67870853      -2.42144646      -0.68295456
H       -0.62264859      -2.45592969       0.64226336
C        1.78714474       0.01002794       0.00389507
H        2.44202412       0.67113390       0.66197326
H        2.45385902      -0.65136977      -0.64189061
C        0.91606151      -0.90478549       0.90901405
