189
Properties=species:S:1:pos:R:3 pbc="F F F"
C        0.00000000       0.00000000       0.00000000
C        4.89215133       2.23720809       0.28958747
C        3.80114689       3.08315616      -0.36335135
N        2.86523950       2.25065643      -1.15140052
C        1.99589575       1.42559116      -0.43915875
C        0.86339616       0.86339616      -0.86339616
C        0.44876446       1.18118313      -2.24276436
O       -0.64229971       0.83968878      -2.68805295
C        1.41419380       1.93247647      -3.09028995
C        2.63085940       2.45673189      -2.54815689
C        3.50000684       3.11031230      -3.48026943
C        3.10798014       3.20416981      -4.84863413
C        1.89740716       2.72026228      -5.32147295
C        1.05063542       2.08357054      -4.43958320
C        4.84588767       3.67440799      -3.20543072
C        5.85801918       2.75442130      -2.84646555
C        7.18340527       3.13947477      -2.66391164
C        7.55204922       4.44571126      -2.93117162
C        6.58914583       5.36687289      -3.36743877
C        5.21101288       5.03601128      -3.45652596
N        4.30565870       6.05333585      -3.89008118
C        2.99737823       6.19130413      -3.20968714
C        3.15799339       6.83819778      -1.84032879
C        4.82991056       7.18137595      -4.51459781
C        6.11143356       7.55406104      -4.55173573
C        7.07080086       6.70428049      -3.80591980
O        8.22485661       7.05784143      -3.57914478
H        5.67151823       2.88089573       0.70789998
H        5.35589955       1.54086276      -0.41369390
H        4.49132468       1.63608203       1.11334003
H        4.23423175       3.90865640      -0.91569899
H        3.23228081       3.57710514       0.43816922
H        2.30449560       1.25924336       0.59188588
H        3.77633248       3.68203757      -5.56757973
H        1.62965583       2.82776859      -6.36888645
H        0.10380277       1.68658862      -4.80522023
H        5.60420859       1.70132269      -2.71261579
H        7.93186817       2.41062441      -2.36062593
H        8.59601571       4.74127523      -2.84254953
H        2.45132147       5.25668980      -3.10050798
H        2.34014577       6.82494780      -3.81893373
H        3.75622508       6.21380394      -1.17035976
H        2.17791248       6.98936882      -1.37659621
H        3.65062174       7.81401859      -1.91382961
H        4.06771097       7.80172092      -4.97968066
C        6.56868102       8.75143578      -5.20810337
C        6.95162577       9.75423713      -5.75781128
Br       7.57081504      11.37568210      -6.64664246
C        0.65345960      -3.23630381      -4.25692774
C       -0.61646796      -2.38816553      -4.24302091
N       -1.15595024      -2.23816412      -2.87318209
C       -0.43757638      -1.42993590      -1.99313337
C       -0.86339616      -0.86339616      -0.86339616
C       -2.28022584      -1.07832390      -0.51416220
O       -2.81557783      -0.48953949       0.41967531
C       -3.04661370      -2.05239978      -1.33794674
C       -2.47990494      -2.64413351      -2.51170973
C       -3.29898126      -3.60808119      -3.18352611
C       -4.59376410      -3.90397488      -2.66304511
C       -5.12042658      -3.27228194      -1.54643387
C       -4.34416572      -2.34556148      -0.88406196
C       -2.93337353      -4.42140440      -4.37094845
C       -1.89535279      -5.36592302      -4.19763023
C       -1.52741935      -6.25997917      -5.19939316
C       -2.25654994      -6.29804227      -6.37433988
C       -3.34425203      -5.43053747      -6.54866798
C       -3.67643094      -4.43221090      -5.59490828
N       -4.79012386      -3.58205894      -5.87689292
C       -4.68679589      -2.13555787      -5.57601573
C       -3.81200129      -1.42451154      -6.60000714
C       -5.68349798      -3.97188819      -6.87049815
C       -5.50469031      -4.93750219      -7.77503782
C       -4.19576798      -5.63386148      -7.75137169
O       -3.82794867      -6.37469239      -8.65920177
H        0.92934241      -3.48891751      -5.28493888
H        0.54134914      -4.16315594      -3.68864940
H        1.49914135      -2.69538947      -3.81781857
H       -1.33421396      -2.75952604      -4.96484714
H       -0.35882596      -1.38876914      -4.62362162
H        0.58732927      -1.24673211      -2.31245023
H       -5.21369680      -4.65370561      -3.15854737
H       -6.11867868      -3.51477232      -1.19285987
H       -4.74385468      -1.85508205       0.00332511
H       -1.36197501      -5.40982166      -3.24635039
H       -0.70550859      -6.95513472      -5.04247520
H       -2.00872286      -7.03074063      -7.14037697
H       -4.31804989      -1.91364480      -4.57682457
H       -5.68924076      -1.68958407      -5.60520248
H       -2.78147842      -1.79010226      -6.56880811
H       -3.79529544      -0.34826650      -6.40031557
H       -4.18685711      -1.57289195      -7.61872088
H       -6.59199103      -3.37474711      -6.88237441
C       -6.47746940      -5.26609559      -8.78465519
C       -7.29217189      -5.54129256      -9.63020973
Br      -8.60947690      -5.98626278     -10.99739992
C       -0.06642826       1.64331295       5.13003074
C       -1.42267184       1.31602836       4.50895420
N       -1.47704205       1.70743065       3.08282375
C       -0.72543730       0.94802957       2.18717879
C       -0.86339616       0.86339616       0.86339616
C       -1.97217236       1.63257689       0.26796271
O       -2.28223968       1.51665473      -0.91345239
C       -2.70652804       2.57265697       1.15777520
C       -2.44990207       2.62063774       2.56520838
C       -3.18218340       3.60757077       3.30083438
C       -4.10136492       4.45074270       2.60867647
C       -4.35136998       4.33855998       1.24921242
C       -3.65181404       3.39770426       0.52427085
C       -3.05704896       3.92193414       4.74674328
C       -1.82227452       4.46294715       5.17368436
C       -1.61101778       4.89588184       6.47989205
C       -2.66586411       4.88828957       7.37477841
C       -3.92675659       4.43383508       6.96286582
C       -4.14816407       3.88224059       5.67314546
N       -5.46530331       3.42559585       5.35817656
C       -5.62889108       2.15565809       4.61382032
C       -5.36666554       0.95566483       5.51418960
C       -6.51871768       3.83816115       6.16900548
C       -6.42736370       4.42519273       7.36467391
C       -5.06073522       4.61103370       7.90923223
O       -4.85546213       4.92872575       9.07765494
H       -0.10746141       1.52073345       6.21631912
H        0.25873231       2.66258471       4.90660381
H        0.71533469       0.97214103       4.75726033
H       -2.22818661       1.71920251       5.11119801
H       -1.56959986       0.22780283       4.57381404
H        0.04676669       0.34989129       2.66872847
H       -4.64611681       5.21919536       3.16063761
H       -5.07287637       4.98973511       0.76369939
H       -3.83055040       3.31250464      -0.54744342
H       -1.00115827       4.55632662       4.46066218
H       -0.63968761       5.28144394       6.78198697
H       -2.52244510       5.27526416       8.38213119
H       -5.00659079       2.07701761       3.72491086
H       -6.65756132       2.08963137       4.23683461
H       -4.33192814       0.93976703       5.86869362
H       -5.55116814       0.02546868       4.96724069
H       -6.01954851       0.96497708       6.39394435
H       -7.49407497       3.60728106       5.74775652
C       -7.57343490       4.80565815       8.14912712
C       -8.53326954       5.12429794       8.80610669
Br     -10.08524096       5.63951154       9.86838709
C        5.25588525      -1.05973735       0.52414935
C        4.30850754      -2.24548077       0.69366608
N        3.05273578      -1.84694574       1.36761493
C        2.16313031      -1.05954012       0.63797522
C        0.86339616      -0.86339616       0.86339616
C        0.27521401      -1.59895328       1.99854466
O       -0.93328299      -1.60860738       2.21011764
C        1.20972356      -2.33177730       2.89545936
C        2.60307107      -2.44507196       2.58760515
C        3.40460907      -3.12637727       3.55960223
C        2.78292195      -3.64278267       4.73507946
C        1.41954154      -3.54875974       4.97084110
C        0.63338753      -2.89174042       4.04866121
C        4.87665248      -3.31955732       3.52951658
C        5.67150929      -2.15457950       3.63281725
C        7.05998250      -2.20605663       3.72075254
C        7.68804902      -3.43568303       3.80520004
C        6.92452984      -4.61159541       3.78733223
C        5.51875426      -4.59813815       3.58665770
N        4.83473229      -5.85275799       3.56158544
C        3.76910527      -6.07252282       2.55674140
C        4.36098051      -6.30298757       1.17255189
C        5.49279742      -6.97367473       4.05941217
C        6.79250685      -7.07827790       4.34644558
C        7.63304984      -5.89166561       4.05628570
O        8.86031967      -5.93648907       4.06503408
H        6.24119333      -1.40539410       0.19792656
H        5.37573390      -0.48727234       1.44744997
H        4.88892584      -0.36162035      -0.23647952
H        4.81769575      -3.08014506       1.16074632
H        4.05735614      -2.62256982      -0.30870923
H        2.61967846      -0.57733161      -0.22515699
H        3.39254490      -4.14386292       5.48954196
H        0.98333999      -3.97128217       5.87168871
H       -0.43683748      -2.79963523       4.23281387
H        5.18980921      -1.17533998       3.65299788
H        7.64299764      -1.28901793       3.77110294
H        8.76865606      -3.48298447       3.92819992
H        3.03623643      -5.27033659       2.50194624
H        3.18665872      -6.95919881       2.83816977
H        4.90217416      -5.42142744       0.81678719
H        3.56563799      -6.52456937       0.45367014
H        5.06098549      -7.14578268       1.17170176
H        4.83662880      -7.83209513       4.18038862
C        7.39847679      -8.28635359       4.84338980
C        7.90597662      -9.29811698       5.25958058
Br       8.72656091     -10.93405282       5.93252587
