98
Properties=species:S:1:pos:R:3 pbc="F F F"
C        1.81266516       1.81266516      -1.81266516
H        1.30742485       2.05176613      -2.75481683
C        2.45763736       3.03249308      -1.13615963
C        3.80158757       2.49698219      -1.63995487
H        4.54147803       2.37143419      -0.83967584
N        3.14791311       1.22794026      -2.00626764
C        4.41720455       3.14893306      -2.89968689
H        5.27039666       2.58421398      -3.29936257
C        3.46927159       3.66988549      -3.99125098
C        4.29004880       4.97182167      -3.91648455
H        3.67689178       5.87895301      -3.89848773
N        4.75484917       4.55390374      -2.57808640
Br       5.75651930       5.14206682      -5.16487015
H        2.38813066       3.04699899      -0.04122198
H        2.12669792       4.00901252      -1.49909297
H        3.32010244       0.87885127      -2.94600526
H        2.41921487       3.82590629      -3.72693127
H        3.50041083       3.12321324      -4.93871488
H        5.75092033       4.72340311      -2.43869498
C       -1.81266516      -1.81266516      -1.81266516
H       -2.77551511      -2.00973781      -1.32875488
C       -1.94092496      -1.39839934      -3.28696577
C       -1.48234852      -2.81700535      -3.63917076
H       -0.61186010      -2.83401907      -4.30670889
N       -1.11478704      -3.03811126      -2.22922271
C       -2.55765412      -3.84343813      -4.06473224
H       -2.17298533      -4.87134780      -4.10964009
C       -3.95418436      -3.74515008      -3.43107362
C       -4.48493092      -3.81757880      -4.87584531
H       -5.27269664      -3.08859153      -5.09304435
N       -3.15003142      -3.39255678      -5.34425111
Br      -4.95274060      -5.57280055      -5.53791512
H       -1.23273631      -0.62760288      -3.61601244
H       -2.93795781      -1.08736575      -3.60947985
H       -1.46405845      -3.88797693      -1.79292359
H       -4.22769204      -2.80910052      -2.93525988
H       -4.22595378      -4.57049036      -2.76589481
H       -2.83508298      -3.91852853      -6.15940690
C       -1.81266516       1.81266516       1.81266516
H       -2.09191759       1.28875857       2.73333165
C       -1.32598629       3.25098659       2.04931720
C       -2.69386990       3.71005515       1.53459959
H       -2.62328299       4.42439438       0.70491069
N       -2.97050987       2.33779840       1.07381273
C       -3.75625876       4.13486089       2.57470485
H       -4.75594671       4.26076548       2.13726103
C       -3.77464542       3.42056906       3.93519358
C       -3.79819212       4.83566520       4.54449770
H       -3.10553042       4.96624655       5.38255556
N       -3.27088147       5.35132188       3.26463597
Br      -5.53856074       5.57219062       4.95270492
H       -0.49824376       3.57303832       1.40506954
H       -1.05633292       3.49938866       3.07908183
H       -3.86204389       1.93322630       1.34968878
H       -2.88488180       2.85669396       4.23047666
H       -4.64982364       2.79069483       4.12182048
H       -3.73187779       6.21187709       2.96926353
C        1.81266516      -1.81266516       1.81266516
H        2.30960849      -2.58670725       1.21769207
C        2.75605687      -1.08610176       2.78413144
C        2.11821335      -1.92232959       3.89798169
H        1.72069529      -1.31284321       4.71904956
N        1.06815364      -2.35513333       2.95883404
C        2.89455322      -3.15510143       4.41616984
H        2.28778667      -3.79967538       5.06651117
C        3.76509031      -3.94162937       3.42368838
C        4.87669497      -3.81807860       4.48358146
H        5.85014071      -3.53393981       4.07025201
N        4.13609172      -2.68187881       5.06886879
Br       5.04681305      -5.28391861       5.73272461
H        2.56789634      -0.01106749       2.89738779
H        3.82509604      -1.21419809       2.59550928
H        0.88575412      -3.35435085       2.90485400
H        4.03485628      -3.45591827       2.48127788
H        3.41596192      -4.95288062       3.19349641
H        4.11125197      -2.71373834       6.08802811
C       -0.00445707       0.01189536      -1.78238275
H       -0.66409135       0.67374010      -2.43557963
H        0.65740317      -0.63156657      -2.45157240
C       -0.90989263      -0.90692880      -0.91072765
C        0.90977584       0.90977584      -0.90977584
C       -0.00465871       1.77757030       0.00794375
H       -0.66225468       2.44313916      -0.64384735
H        0.64322798       2.43503045       0.67728295
C       -1.78241447       0.00034974      -0.00472694
H       -2.45427497      -0.65498947       0.64260836
H       -2.43311707       0.67328779      -0.65473579
C       -0.91132561       0.90220522       0.91563759
C       -0.01476271      -0.02253852       1.78660255
H       -0.67934791      -0.69751639       2.42135241
H        0.63392994       0.61504881       2.47327442
C        0.01484550      -1.77751727      -0.01636693
H        0.67870853      -2.42144646      -0.68295456
H       -0.62264859      -2.45592969       0.64226336
C        1.78714474       0.01002794       0.00389507
H        2.44202412       0.67113390       0.66197326
H        2.45385902      -0.65136977      -0.64189061
C        0.91606151      -0.90478549       0.90901405
