122
Properties=species:S:1:pos:R:3 pbc="F F F"
C        1.81060357       1.81060357      -1.81060357
H        1.45444395       1.82655469      -2.84823228
C        2.15413903       3.20732115      -1.26201599
C        3.59679105       2.89809247      -1.70907607
H        4.35186839       3.16517225      -0.96167975
N        3.24123787       1.46271648      -1.69118403
C        3.96048252       3.33349815      -3.04133447
C        4.24153597       3.70427273      -4.14787206
C        4.56446744       4.18485432      -5.56423913
C        4.78703415       4.57178076      -6.68074671
C        5.01572131       5.04491282      -8.02135205
H        4.24951208       4.70984641      -8.73289564
C        5.36565479       6.53745797      -8.17276731
C        6.50445613       6.05584008      -9.08741206
H        7.46292604       6.54860328      -8.89591309
N        6.39094199       4.72582813      -8.45947174
H        2.05055979       3.32611623      -0.17643686
H        1.65280867       4.04705195      -1.75310528
H        3.60628907       0.91685652      -2.46838911
H        5.72052734       7.03213296      -7.25946984
H        4.59359050       7.16410502      -8.62876757
H        6.44365099       3.95923684      -9.12680411
C        6.21712577       6.00619330     -10.49758101
C        5.97648659       5.96461413     -11.67859750
Br       5.58739339       5.89738411     -13.58820128
C       -1.81060357      -1.81060357      -1.81060357
H       -2.07484382      -2.74834961      -1.30603750
C       -3.00969895      -1.12427319      -2.48950403
C       -2.56765077      -1.87476483      -3.76154399
H       -2.56968358      -1.24860661      -4.66043020
N       -1.22748749      -2.01539231      -3.15225857
C       -3.18119693      -3.16679731      -3.98732089
C       -3.70293885      -4.23458472      -4.15615720
C       -4.38232871      -5.59356296      -4.33766921
C       -4.93072829      -6.65761234      -4.45122099
C       -5.60350790      -7.92672002      -4.55175826
H       -5.53059073      -8.52664549      -3.63501790
C       -7.02485882      -7.90564001      -5.14538124
C       -6.55007722      -9.08006719      -6.01756387
H       -6.84274088      -8.99576120      -7.06894033
N       -5.16076582      -8.65752673      -5.75794931
H       -2.93903984      -0.03339401      -2.58067903
H       -3.99397024      -1.37618470      -2.08281096
H       -0.78564440      -2.92250516      -3.28338514
H       -7.27928627      -7.00851393      -5.72432994
H       -7.83818178      -8.10639728      -4.44188403
H       -4.53313379      -9.43439213      -5.56216601
C       -6.80928104     -10.40224563      -5.50937341
C       -7.02636424     -11.50957008      -5.08376390
Br      -7.37736941     -13.30002006      -4.39558932
C       -1.81060357       1.81060357       1.81060357
H       -2.81064822       1.94026945       1.37831325
C       -1.83415902       1.47623885       3.31307830
C       -1.67733468       2.99412957       3.53249534
H       -0.93358317       3.25018156       4.29495565
N       -1.15377131       3.08871838       2.15264869
C       -2.90416202       3.74852864       3.68262448
C       -3.93298249       4.35444499       3.80625328
C       -5.26287564       5.09666304       3.95402221
C       -6.32374171       5.65193904       4.06388087
C       -7.61211841       6.28309468       4.18677309
H       -8.29935433       6.02157381       3.37132599
C       -8.27633556       6.22410071       5.57544380
C       -8.53467632       7.72820349       5.38482847
H       -8.30683438       8.33092636       6.26968166
N       -7.46258517       7.74201922       4.37163747
H       -0.98071415       0.89268596       3.67971278
H       -2.75521520       1.01505706       3.68269364
H       -1.48654589       3.88753228       1.61745653
H       -7.60027000       6.00100421       6.41085593
H       -9.15371520       5.57581763       5.65693026
H       -7.69596710       8.28839317       3.54533165
C       -9.80760290       8.09379873       4.81949845
C      -10.87367891       8.39998475       4.34603456
Br     -12.59743366       8.89506164       3.58048349
C        1.81060357      -1.81060357       1.81060357
H        2.58431102      -1.22371394       2.32120597
C        1.08398792      -2.80067497       2.73881328
C        2.11884153      -3.83406598       2.25105209
H        1.67928651      -4.80430728       1.99512660
N        2.35135381      -2.97065576       1.07312881
C        3.31790444      -3.96523066       3.05218004
C        4.30323863      -4.05915622       3.73128591
C        5.54863368      -4.14920884       4.61571836
C        6.51583209      -4.19508794       5.32864159
C        7.65997179      -4.21945928       6.20255510
H        8.08185734      -3.22276496       6.38763183
C        7.52774623      -5.06412089       7.48401295
C        8.90412400      -5.63717920       7.10640507
H        8.97301397      -6.72471471       7.20971373
N        8.66353595      -5.19194524       5.72076067
H        0.05417001      -3.04683810       2.45210478
H        1.09803389      -2.55075824       3.80417377
H        3.32481863      -2.87308618       0.79362989
H        6.72605576      -5.81372511       7.47234927
H        7.46349626      -4.50242855       8.42053828
H        9.47869901      -4.76302421       5.28796871
C       10.05076494      -4.98558995       7.68454519
C       11.01107673      -4.43988395       8.16873754
Br      12.56381967      -3.55752350       8.95163562
C       -0.00445707       0.01189536      -1.78238275
H       -0.66409135       0.67374010      -2.43557963
H        0.65740317      -0.63156657      -2.45157240
C       -0.90989263      -0.90692880      -0.91072765
C        0.90977584       0.90977584      -0.90977584
C       -0.00465871       1.77757030       0.00794375
H       -0.66225468       2.44313916      -0.64384735
H        0.64322798       2.43503045       0.67728295
C       -1.78241447       0.00034974      -0.00472694
H       -2.45427497      -0.65498947       0.64260836
H       -2.43311707       0.67328779      -0.65473579
C       -0.91132561       0.90220522       0.91563759
C       -0.01476271      -0.02253852       1.78660255
H       -0.67934791      -0.69751639       2.42135241
H        0.63392994       0.61504881       2.47327442
C        0.01484550      -1.77751727      -0.01636693
H        0.67870853      -2.42144646      -0.68295456
H       -0.62264859      -2.45592969       0.64226336
C        1.78714474       0.01002794       0.00389507
H        2.44202412       0.67113390       0.66197326
H        2.45385902      -0.65136977      -0.64189061
C        0.91606151      -0.90478549       0.90901405
