101
Properties=species:S:1:pos:R:3 pbc="F F F"
C        0.00000000       0.00000000       0.00000000
C        0.90069955       0.90069955      -0.90069955
H        0.54453993       0.91665067      -1.93832826
C        1.24423500       2.29741713      -0.35211196
C        2.68688702       1.98818845      -0.79917205
H        3.44196436       2.25526823      -0.05177572
N        2.33133384       0.55281246      -0.78128001
C        3.05057849       2.42359412      -2.13143045
C        3.33163195       2.79436871      -3.23796803
C        3.65456342       3.27495029      -4.65433510
C        3.87713012       3.66187674      -5.77084268
C        4.10581728       4.13500880      -7.11144803
H        3.33960805       3.79994238      -7.82299162
C        4.45575076       5.62755395      -7.26286328
C        5.59455211       5.14593606      -8.17750804
H        6.55302201       5.63869926      -7.98600907
N        5.48103797       3.81592410      -7.54956772
H        1.14065577       2.41621221       0.73346716
H        0.74290464       3.13714792      -0.84320126
H        2.69638504       0.00695250      -1.55848509
H        4.81062332       6.12222893      -6.34956582
H        3.68368648       6.25420100      -7.71886354
H        5.53374696       3.04933281      -8.21690009
C        5.30722174       5.09628928      -9.58767698
C        5.06658256       5.05471010     -10.76869348
Br       4.67748936       4.98748009     -12.67829726
C       -0.90069955      -0.90069955      -0.90069955
H       -1.95859324      -0.81962890      -0.62129671
C       -0.66226131      -0.81252855      -2.41897424
C       -0.72300324      -2.35285854      -2.39838574
H        0.06797472      -2.82859226      -2.98839078
N       -0.41727373      -2.29554952      -0.95260306
C       -2.02258557      -2.94470603      -2.63831147
C       -3.10843066      -3.41454917      -2.84098886
C       -4.50709830      -3.97986957      -3.09688095
C       -5.61801150      -4.39357998      -3.29825806
C       -6.96166900      -4.85209934      -3.53850576
H       -7.70386018      -4.37030279      -2.88837908
C       -7.40936056      -4.92617530      -5.01063214
C       -7.93026357      -6.32965768      -4.65807496
H       -7.68233756      -7.09257417      -5.40281861
N       -7.02481997      -6.32823616      -3.49347366
H        0.31635368      -0.41921606      -2.72053843
H       -1.43704041      -0.29404994      -2.99216347
H       -0.94501274      -2.94404747      -0.37276242
H       -6.59732242      -4.93605536      -5.74904029
H       -8.15116019      -4.18451307      -5.32107775
H       -7.45502722      -6.69691850      -2.64803414
C       -9.31118866      -6.42002044      -4.25997891
C      -10.46771342      -6.49569925      -3.92657347
Br     -12.33771615      -6.61806549      -3.38748507
C       -0.90069955       0.90069955       0.90069955
H       -0.29985020       1.54816178       1.55150688
C       -2.05306822       1.64182533       0.19887054
C       -2.91994365       1.17078914       1.38351472
H       -3.89491650       0.77402404       1.08006777
N       -1.91420558       0.11615414       1.63506659
C       -3.01921457       2.08141955       2.50496895
C       -3.08935456       2.85164812       3.42296601
C       -3.15250941       3.85379211       4.57754730
C       -3.18061088       4.66021794       5.46902072
C       -3.18762108       5.64735148       6.51730155
H       -2.18047454       5.97471195       6.80735557
C       -4.17626204       6.81720856       6.35269740
C       -4.56623133       6.53781393       7.81395094
H       -5.64643844       6.54042927       7.99086263
N       -3.99798876       5.18479295       7.66374808
H       -2.36661158       1.22136303      -0.76457379
H       -1.92101042       2.72173287       0.08051054
H       -1.69126013      -0.04422238       2.61478488
H       -4.99537983       6.64416665       5.64287159
H       -3.72944359       7.79182489       6.13548253
H       -3.44612415       4.88811117       8.46574454
C       -3.87204633       7.29923868       8.81990300
C       -3.29066639       7.93693190       9.66238785
Br      -2.35062421       8.96802790      11.02461460
C        0.90069955      -0.90069955       0.90069955
H        1.37316189      -1.70428403       0.32207293
C        1.87600860      -0.17366755       1.84408795
C        1.38938317      -1.16565193       2.91921241
H        1.17304567      -0.69263168       3.88333097
N        0.18166561      -1.38845367       2.09530703
C        2.16072393      -2.38276982       3.06210932
C        2.81494544      -3.38390611       3.16511714
C        3.66709782      -4.65079476       3.26595623
C        4.35425360      -5.63607918       3.31951676
C        5.19681944      -6.80329453       3.35216013
H        5.34210175      -7.25738739       2.36305291
C        6.50471449      -6.68413360       4.15731991
C        6.10582384      -8.03309937       4.77907300
H        6.23781268      -8.07503992       5.86487774
N        4.71529736      -7.76585111       4.36538132
H        1.62468452       0.87018105       2.06889735
H        2.93311760      -0.22457574       1.56556049
H       -0.12704795      -2.35596357       2.03290700
H        6.53615767      -5.86218874       4.88407166
H        7.42644763      -6.66172088       3.56858251
H        4.24841014      -8.57994340       3.97162633
C        6.63372689      -9.21300568       4.14445544
C        7.07584569     -10.20117722       3.61296323
Br       7.79071440     -11.79896703       2.75358528
