186
Properties=species:S:1:pos:R:3 pbc="F F F"
C        1.79229017       1.79229017      -1.79229017
C        2.68241266       1.19465718      -2.69344864
C        3.50348577       1.98587508      -3.50374751
C        3.43047022       3.37067193      -3.38813369
C        2.50277156       3.95222262      -2.51328280
C        1.69089830       3.17967698      -1.69632698
C        2.52986517       5.44402702      -2.59856542
C        3.25824957       5.64984381      -3.93524937
C        4.21291775       4.43045818      -4.14344918
N        4.19563574       4.15916769      -5.60080450
C        5.72571942       4.70766682      -3.64037156
N        6.45658730       5.53086373      -4.63320553
C        6.57177831       3.40428216      -3.47606994
C        6.48200221       2.97718229      -2.00336537
C        6.28885057       4.29832965      -1.33260715
C        5.88095231       5.28269838      -2.24380955
C        5.71867106       6.59761349      -1.81936949
C        5.90951629       6.90193862      -0.46807893
C        6.27369341       5.89704978       0.43787025
C        6.47065891       4.58440553       0.01236396
H        2.74291812       0.11186919      -2.76928036
H        4.18609881       1.51401181      -4.20353997
H        0.99057923       3.64639366      -1.01159888
H        3.07068005       5.86674114      -1.75000126
H        1.52331160       5.87092073      -2.63469286
H        3.75712677       6.62149587      -3.99734012
H        2.48619232       5.66713799      -4.72133083
H        3.35608295       3.63817149      -5.84467768
H        5.00119716       3.58560501      -5.84169526
H        7.23547876       6.00506155      -4.18146377
H        5.82860487       6.24180245      -5.00229456
H        6.29173009       2.60172022      -4.16488927
H        7.63381566       3.61126685      -3.68524502
H        5.63539990       2.31766094      -1.80252763
H        7.40606711       2.48644650      -1.68386223
H        5.44224559       7.38395219      -2.51502111
H        5.77208186       7.92509648      -0.12667606
H        6.76926897       3.80634779       0.70761172
C        6.45817103       6.22820537       1.82708010
C        6.61267103       6.50554817       2.99054334
Br       6.86248446       6.95398803       4.87176500
C       -1.79229017      -1.79229017      -1.79229017
C       -2.66556383      -2.70998742      -1.19496722
C       -3.47530693      -3.53140782      -1.98639362
C       -3.38702765      -3.43077683      -3.37147135
C       -2.54044234      -2.47630523      -3.95152941
C       -1.72422529      -1.66361328      -3.17906370
C       -2.65315402      -2.47754530      -5.44175828
C       -3.97983512      -3.22694229      -5.63656534
C       -4.14754991      -4.20761413      -4.43166107
N       -5.59963650      -4.22263988      -4.13333155
C       -3.62201208      -5.70536690      -4.74637882
N       -4.61648599      -6.43944566      -5.56472491
C       -3.41777765      -6.57203131      -3.46232145
C       -1.93922844      -6.46254392      -3.06077751
C       -1.29701336      -6.23258556      -4.39018844
C       -2.23385237      -5.82379628      -5.34981158
C       -1.83718584      -5.62942839      -6.66903981
C       -0.48855375      -5.78928601      -7.00169409
C        0.44261415      -6.15484516      -6.02064193
C        0.04547723      -6.38386354      -4.70431416
H       -2.71996460      -2.79181150      -0.11229158
H       -4.15345821      -4.23557992      -1.51461246
H       -1.06136241      -0.94211823      -3.64509112
H       -1.80285575      -2.99449531      -5.89007139
H       -2.71578514      -1.46416298      -5.84897707
H       -4.05093645      -3.70893707      -6.61608925
H       -4.78017194      -2.46956457      -5.62492463
H       -5.84910590      -3.39753084      -3.59229538
H       -5.81487677      -5.04298881      -3.57063184
H       -4.15945856      -7.20087965      -6.06166587
H       -5.01032297      -5.80551860      -6.25686031
H       -4.09647080      -6.31975185      -2.64211694
H       -3.61122289      -7.63381484      -3.68528980
H       -1.74167396      -5.62460200      -2.38931251
H       -1.59364035      -7.38932987      -2.59340562
H       -2.55241876      -5.35166992      -7.43713021
H       -0.16897107      -5.62667952      -8.02820381
H        0.76055933      -6.68365419      -3.94491019
C        1.82853251      -6.30713317      -6.38069563
C        2.98923913      -6.43467438      -6.68224061
Br       4.86600358      -6.64089774      -7.16981333
C       -1.79229017       1.79229017       1.79229017
C       -2.21125758       1.31766433       3.04159656
C       -3.02545554       2.10788758       3.85976525
C       -3.42156920       3.36214252       3.40556411
C       -2.95680764       3.83907923       2.17239011
C       -2.15851294       3.06177313       1.34661619
C       -3.43155793       5.23153025       1.90936943
C       -3.85265057       5.67091480       3.31977737
C       -4.29772939       4.39110123       4.09799449
N       -3.85449084       4.60465310       5.49646398
C       -5.89431817       4.13268401       4.04675562
N       -6.59280641       5.03096866       4.99688149
C       -6.30044901       2.68378178       4.46789962
C       -6.42887505       1.84823276       3.18544207
C       -6.82469802       2.89729477       2.19779458
C       -6.54582446       4.18525242       2.67638337
C       -6.91028732       5.29891803       1.92644868
C       -7.49866532       5.10843284       0.67243569
C       -7.72963526       3.81351541       0.18972227
C       -7.39753504       2.69413692       0.95102851
H       -1.90808917       0.33155946       3.38441905
H       -3.34043791       1.73418954       4.82902314
H       -1.82209202       3.43963649       0.38684325
H       -4.26113219       5.22615050       1.20013977
H       -2.63184809       5.87164644       1.52543067
H       -4.60289959       6.46701738       3.30604580
H       -2.96365135       6.11552282       3.79548697
H       -2.86108995       4.39928608       5.57855608
H       -4.35817400       3.96405196       6.10627147
H       -7.56444761       5.14206084       4.71549563
H       -6.15259709       5.94835975       4.97174504
H       -5.62853503       2.22834352       5.20146104
H       -7.29327461       2.69085686       4.94619606
H       -5.48969409       1.37706310       2.88883128
H       -7.19909798       1.07950735       3.29777050
H       -6.74052361       6.30602458       2.29467069
H       -7.77460937       5.97410521       0.07513981
H       -7.59021428       1.68956860       0.58822216
C       -8.32950348       3.63725627      -1.10746346
C       -8.83189312       3.48963925      -2.19385651
Br      -9.64421467       3.25095501      -3.95046220
C        1.79229017      -1.79229017       1.79229017
C        2.24390076      -3.02421186       1.30240585
C        3.04599334      -3.84882748       2.09828754
C        3.37323522      -3.43130522       3.38473539
C        2.94968058      -2.17618575       3.84241065
C        2.14496325      -1.35383232       3.06810670
C        3.47243008      -1.88760225       5.21242527
C        4.60641776      -2.91834547       5.31857951
C        4.21421113      -4.14247360       4.43014038
N        5.48566637      -4.62775292       3.84218863
C        3.48785892      -5.32835758       5.25754130
N        4.48912612      -6.11723323       6.01429721
C        2.75013107      -6.35868354       4.34331580
C        1.27817500      -5.92853747       4.25583741
C        1.09954871      -5.24682298       5.57341568
C        2.33292011      -4.92003927       6.15450087
C        2.37345415      -4.34261853       7.41958135
C        1.17068048      -4.04251470       8.06633867
C       -0.05406947      -4.33507037       7.45187204
C       -0.10082219      -4.94440980       6.19911286
H        1.97376171      -3.34944399       0.30086197
H        3.39630476      -4.79927027       1.70807556
H        1.81107565      -0.39271021       3.44478590
H        2.69121352      -2.03622741       5.95998152
H        3.86363294      -0.86942210       5.29587015
H        4.84347548      -3.17792290       6.35456439
H        5.51510418      -2.43666614       4.92289082
H        5.74532709      -4.04250515       3.05109988
H        5.35244049      -5.57675746       3.49929948
H        4.03668781      -6.59426581       6.79105045
H        5.18816020      -5.48537277       6.39916890
H        3.20954824      -6.48973476       3.35905659
H        2.76461577      -7.35801253       4.80769923
H        1.08590534      -5.23414600       3.43553712
H        0.62410854      -6.79939614       4.15287117
H        3.31760998      -4.11760321       7.90600569
H        1.19444648      -3.57952065       9.04988727
H       -1.04715351      -5.18820345       5.72695511
C       -1.28241104      -4.01152974       8.13017760
C       -2.31114711      -3.74056446       8.69825851
Br      -3.97452633      -3.30243652       9.61679730
C       -0.00445707       0.01189536      -1.78238275
H       -0.66409135       0.67374010      -2.43557963
H        0.65740317      -0.63156657      -2.45157240
C       -0.90989263      -0.90692880      -0.91072765
C        0.90977584       0.90977584      -0.90977584
C       -0.00465871       1.77757030       0.00794375
H       -0.66225468       2.44313916      -0.64384735
H        0.64322798       2.43503045       0.67728295
C       -1.78241447       0.00034974      -0.00472694
H       -2.45427497      -0.65498947       0.64260836
H       -2.43311707       0.67328779      -0.65473579
C       -0.91132561       0.90220522       0.91563759
C       -0.01476271      -0.02253852       1.78660255
H       -0.67934791      -0.69751639       2.42135241
H        0.63392994       0.61504881       2.47327442
C        0.01484550      -1.77751727      -0.01636693
H        0.67870853      -2.42144646      -0.68295456
H       -0.62264859      -2.45592969       0.64226336
C        1.78714474       0.01002794       0.00389507
H        2.44202412       0.67113390       0.66197326
H        2.45385902      -0.65136977      -0.64189061
C        0.91606151      -0.90478549       0.90901405
