181
Properties=species:S:1:pos:R:3 pbc="F F F"
C        0.00000000       0.00000000       0.00000000
C        0.88256567       0.88256567      -0.88256567
C        2.00922635       0.32903851      -1.50362394
C        2.82516056       1.12354612      -2.31324548
C        2.49875879       2.46642678      -2.48978122
C        1.37641619       3.00765767      -1.85903983
C        0.55725781       2.22847170      -1.05308156
C        1.22476099       4.46411918      -2.14148127
C        2.34965727       4.76452340      -3.14516617
C        3.22808572       3.49596171      -3.31789925
N        3.25029298       3.10848199      -4.72857371
C        4.58102861       3.71555441      -2.86351450
C        5.69613820       3.89654841      -2.48899795
C        7.12762537       4.10282549      -1.98194892
C        8.24615631       4.26355380      -1.57991110
C        9.61791644       4.47844030      -1.09298216
N       10.18536230       5.65195072      -1.75418045
C       10.51432504       3.23987663      -1.36166205
C       10.95089979       2.63538106      -0.01724348
C       10.43583139       3.60285478       0.99426825
C        9.67531314       4.61730253       0.40830900
C        9.07591083       5.59335484       1.20100650
C        9.25617387       5.54573585       2.58599757
C       10.02848964       4.52812901       3.16010128
C       10.62337021       3.54517404       2.36882743
H        2.25945124      -0.71877697      -1.35765232
H        3.70426702       0.69604607      -2.78699079
H       -0.31083178       2.66113731      -0.56539368
H        1.35181840       5.04987233      -1.22570762
H        0.24485990       4.68021544      -2.57952273
H        2.92836920       5.63709673      -2.81370951
H        1.89342283       5.07194930      -4.09688065
H        2.30114350       2.88052576      -5.01866205
H        3.78643149       2.24858755      -4.82164155
H       11.10343607       5.83760787      -1.35454499
H        9.61190653       6.46159296      -1.52852628
H       10.01041134       2.47868784      -1.97210437
H       11.41522572       3.51035746      -1.93022285
H       10.50308119       1.64771133       0.13110704
H       12.04136196       2.55276014       0.03629521
H        8.46787237       6.37662742       0.75751856
H        8.78842477       6.30154638       3.21199501
H       11.21413360       2.75001744       2.81311451
C       10.20575200       4.49280792       4.58871266
C       10.35420922       4.46322650       5.78517469
Br      10.59425199       4.41539585       7.71975260
C       -0.88256567      -0.88256567      -0.88256567
C       -1.38261544      -2.08710494      -0.37216842
C       -2.19069313      -2.90404222      -1.16721680
C       -2.48744884      -2.50031270      -2.46720525
C       -1.97656493      -1.30019959      -2.96634917
C       -1.17347958      -0.47927462      -2.18605688
C       -2.37507644      -1.07034255      -4.38494246
C       -3.31873839      -2.24278733      -4.69782111
C       -3.33714530      -3.21634629      -3.48845509
N       -4.71066118      -3.36872330      -3.00796420
C       -2.80855816      -4.51398502      -3.83755434
C       -2.37288352      -5.58351152      -4.12528952
C       -1.78554054      -6.95633567      -4.47052358
C       -1.32075922      -8.02863001      -4.74023198
C       -0.75815787      -9.34291958      -5.08826145
N       -1.46345405      -9.87575585      -6.25228356
C       -0.87300077     -10.33936966      -3.90349330
C        0.53896686     -10.71625747      -3.42623372
C        1.43893334     -10.06315111      -4.42020015
C        0.72925178      -9.28010507      -5.33345339
C        1.40510543      -8.55859672      -6.31476788
C        2.79893244      -8.63935038      -6.37549421
C        3.49785872      -9.43522247      -5.45915362
C        2.82361951     -10.15259998      -4.47073635
H       -1.14318620      -2.39708434       0.64194394
H       -2.57039722      -3.84281582      -0.77409084
H       -0.77952894       0.44991703      -2.58608730
H       -1.49831604      -1.08929348      -5.03978884
H       -2.89389871      -0.11281845      -4.49788091
H       -3.01350084      -2.73443752      -5.63123708
H       -4.31948844      -1.83780222      -4.90496212
H       -5.04751592      -2.46132368      -2.69149172
H       -4.70330190      -3.96787974      -2.18547895
H       -1.01662402     -10.74707726      -6.53188766
H       -1.33775798      -9.23316149      -7.03110631
H       -1.45888107      -9.93502899      -3.06729349
H       -1.39688024     -11.25900113      -4.19992466
H        0.72853617     -10.32743307      -2.42078857
H        0.67298787     -11.80292023      -3.42789453
H        0.86461768      -7.93261202      -7.01898689
H        3.33414323      -8.07617122      -7.13594815
H        3.36459332     -10.76215212      -3.75347773
C        4.93397531      -9.50894044      -5.53488212
C        6.13672295      -9.57067924      -5.59830474
Br       8.08146416      -9.67050565      -5.70085375
C       -0.88256567       0.88256567       0.88256567
C       -2.10741396       0.38726516       1.34720967
C       -2.92461322       1.18250354       2.15483540
C       -2.50072011       2.46748167       2.48676501
C       -1.28030004       2.95184675       2.01096690
C       -0.45891778       2.17117335       1.20871994
C       -1.02990514       4.35692404       2.44353227
C       -2.21511770       4.67483392       3.36939521
C       -3.21331161       3.48587577       3.34275930
N       -3.40402027       2.98074832       4.70258010
C       -4.49227392       3.87262426       2.79519933
C       -5.54640689       4.19139047       2.34388719
C       -6.89937822       4.57703912       1.73598244
C       -7.95603952       4.87843748       1.25514422
C       -9.25095925       5.26515704       0.67322262
N       -9.77451295       6.42539366       1.39158686
C      -10.27354067       4.09929607       0.74302699
C      -10.63060497       3.65888345      -0.68596409
C       -9.93876655       4.65718496      -1.55153359
C       -9.15220274       5.53927307      -0.80716914
C       -8.39691547       6.51893305      -1.44758935
C       -8.44737677       6.60974230      -2.84120692
C       -9.24704807       5.72461583      -3.57514652
C       -9.99831750       4.73780301      -2.93640370
H       -2.43295981      -0.61507940       1.08044618
H       -3.87891136       0.80134573       2.50704679
H        0.48623991       2.55972274       0.84221638
H       -1.01723809       5.02976852       1.58039174
H       -0.08128629       4.43929733       2.98401444
H       -2.68116674       5.62431493       3.07369377
H       -1.82691559       4.85304461       4.38229258
H       -2.51047397       2.63864796       5.05120938
H       -4.01954373       2.17123703       4.66587983
H      -10.63045861       6.73213312       0.93299721
H       -9.11369031       7.19307031       1.29526516
H       -9.89862430       3.24308394       1.31949531
H      -11.19764288       4.40406363       1.25409953
H      -10.25850519       2.64963640      -0.88845611
H      -11.71398191       3.68590131      -0.84205632
H       -7.76808696       7.19879651      -0.87990223
H       -7.85778411       7.36906353      -3.34887149
H      -10.61097626       4.04457327      -3.50451300
C       -9.28929022       5.83113689      -5.01057985
C       -9.32466802       5.92034828      -6.21275527
Br      -9.38187093       6.06459556      -8.15657125
C        0.88256567      -0.88256567       0.88256567
C        1.33597383      -2.11362897       0.39228599
C        2.14345611      -2.93090844       1.18758761
C        2.48654787      -2.50084502       2.46757391
C        2.02188562      -1.27420785       2.94702022
C        1.21990452      -0.45268599       2.16622056
C        2.46526644      -1.01751285       4.34758215
C        3.38545897      -2.20667098       4.66721689
C        3.34453928      -3.21238571       3.48502169
N        4.69975199      -3.41528150       2.97231520
C        2.79121252      -4.48518957       3.88369543
C        2.33514737      -5.53424661       4.21229059
C        1.72098954      -6.88066818       4.61074207
C        1.23526933      -7.93217304       4.92217884
C        0.64747837      -9.22070873       5.32115180
N        1.37000504      -9.74139499       6.48009343
C        0.70298744     -10.25129138       4.16158491
C       -0.73115156     -10.60184576       3.73283014
C       -1.58564198      -9.89786965       4.73219025
C       -0.83041190      -9.11047480       5.60424377
C       -1.45947181      -8.34464877       6.58308221
C       -2.85276350      -8.38538769       6.68328796
C       -3.59767439      -9.18597754       5.80821423
C       -2.97031251      -9.94782147       4.82220785
H        1.06053693      -2.44393681      -0.60614714
H        2.48694494      -3.88995376       0.81040518
H        0.86211306       0.49736099       2.55094714
H        1.60665278      -0.99481319       5.02593238
H        3.01243889      -0.07193891       4.42022026
H        3.09295684      -2.66458376       5.62163484
H        4.40200703      -1.82396084       4.83628492
H        5.05194069      -2.52628350       2.62210712
H        4.65374449      -4.03580669       2.16710941
H        0.90787373     -10.59230376       6.79541144
H        1.28301701      -9.07497342       7.24403535
H        1.27626235      -9.88573961       3.29920159
H        1.21002048     -11.17671863       4.46906692
H       -0.93782461     -10.23500366       2.72250643
H       -0.89411089     -11.68397815       3.76795963
H       -0.88326281      -7.71514121       7.25510282
H       -3.35159518      -7.78755284       7.44201848
H       -3.54692601     -10.56124418       4.13671835
C       -5.03262365      -9.21812149       5.92434942
C       -6.23439366      -9.24504204       6.02161265
Br      -8.17755412      -9.28857030       6.17887906
