186
Properties=species:S:1:pos:R:3 pbc="F F F"
C        1.83613432       1.83613432      -1.83613432
H        2.25584145       1.14877236      -2.58049132
C        2.93814009       2.39120408      -0.96373486
C        2.79466164       3.57730648      -0.22751832
C        3.84780221       4.07061970       0.54772022
C        5.05823671       3.37584977       0.62915670
C        5.20395913       2.18508389      -0.08745538
C        4.15453523       1.69604886      -0.86988933
C        6.19420868       3.93132560       1.43537496
C        0.93328599       2.84871018      -2.55521469
C        1.70587392       3.74473350      -3.53657274
C        0.78111122       4.71724857      -4.27760987
H        0.06406335       4.14854008      -4.88098203
C        0.06221428       5.71691545      -3.40097821
C        0.74674242       6.56511345      -2.51618887
C        0.04983014       7.46018664      -1.69933397
C       -1.34532191       7.53263536      -1.75329031
C       -2.03482723       6.67949198      -2.61962570
C       -1.33864057       5.78711061      -3.43904515
C       -2.09341586       8.47119466      -0.85377904
H        1.86408387       4.13978493      -0.24869245
H        3.71402956       5.00254932       1.09202079
H        6.13631832       1.62602117      -0.04134815
H        4.29688299       0.76171016      -1.40813952
H        6.93534597       3.15806663       1.66275112
H        5.83108635       4.32662411       2.38941296
H        6.68869840       4.73417940       0.87995953
H        0.16283946       2.30411868      -3.11858639
H        0.39088491       3.46259795      -1.82619492
H        2.21863909       3.10247605      -4.26442043
H        2.49383810       4.29437331      -3.00974167
H        1.83297612       6.54258277      -2.45637765
H        0.60609925       8.10502182      -1.02280663
H       -3.12137841       6.70457686      -2.66554913
H       -1.90585246       5.14068115      -4.10578063
H       -3.06077599       8.74504963      -1.28865007
H       -1.53058515       9.39915044      -0.70554769
H       -2.26599120       8.00045020       0.11916753
C        1.55240145       5.43858924      -5.25657821
C        2.19835702       6.04271205      -6.07646420
Br       3.24281254       7.01952754      -7.40215050
C       -1.83613432      -1.83613432      -1.83613432
H       -1.30612484      -1.88394451      -2.79503578
C       -3.15827757      -1.12518940      -2.00961206
C       -4.22089770      -1.27355686      -1.10503188
C       -5.43718491      -0.61797431      -1.31554246
C       -5.61076913       0.22391508      -2.41807573
C       -4.55217634       0.39057903      -3.31490109
C       -3.33891103      -0.27168938      -3.10987301
C       -6.93086401       0.89509282      -2.65438813
C       -1.87135858      -3.24322147      -1.22263081
C       -2.67073629      -4.24422784      -2.07221603
C       -2.65603111      -5.65272478      -1.46721376
H       -1.62582224      -6.02641653      -1.44134669
C       -3.29962963      -5.77538266      -0.10509565
C       -4.61580606      -5.35386057       0.14162188
C       -5.17258476      -5.45649518       1.41972918
C       -4.42954285      -5.98872601       2.47766510
C       -3.11276523      -6.39500361       2.24347838
C       -2.55680658      -6.29606720       0.96535859
C       -5.01755113      -6.06914681       3.85514011
H       -4.12245567      -1.90504095      -0.22506463
H       -6.24928923      -0.76740446      -0.60786439
H       -4.66227329       1.03975473      -4.18116908
H       -2.53172162      -0.11352436      -3.82148669
H       -6.82899178       1.74075404      -3.34242374
H       -7.33735766       1.28467448      -1.71561432
H       -7.64101580       0.18150522      -3.08340770
H       -0.84258258      -3.61712763      -1.12583431
H       -2.27166642      -3.20560890      -0.20240246
H       -2.23256778      -4.27463610      -3.07833169
H       -3.70137105      -3.89537768      -2.20120435
H       -5.22592343      -4.94485327      -0.66115983
H       -6.19452076      -5.12150002       1.58209308
H       -2.50890387      -6.79494430       3.05510059
H       -1.53069069      -6.62623058       0.81631195
H       -4.54466649      -6.86667899       4.43842177
H       -6.08864078      -6.29368575       3.80821356
H       -4.87586460      -5.11885488       4.37942800
C       -3.32214095      -6.55455110      -2.37087685
C       -3.88000794      -7.30983064      -3.12769468
Br      -4.78203168      -8.53105378      -4.35140511
C       -1.83613432       1.83613432       1.83613432
H       -2.77095782       1.94162955       1.27251775
C       -1.15275112       3.17802428       1.96230363
C       -0.19680447       3.44945357       2.95322840
C        0.39352451       4.71249200       3.05173419
C        0.06489756       5.72469796       2.14512939
C       -0.87369453       5.45797086       1.14483301
C       -1.47096031       4.19813413       1.05137898
C        0.67732047       7.08688800       2.28059178
C       -2.12858456       1.07277192       3.13585439
C       -3.07781421       1.83505396       4.07431200
C       -3.39362921       1.03749186       5.34484858
H       -3.91083693       0.11010566       5.07264287
C       -2.20593144       0.74228014       6.23189637
C       -1.36062508       1.75483441       6.71258526
C       -0.25445141       1.44555695       7.50934240
C        0.02765323       0.11908070       7.84917629
C       -0.79979250      -0.89594911       7.36044706
C       -1.90775192      -0.58722177       6.56698504
C        1.23260536      -0.21382227       8.67798546
H        0.10068009       2.68544775       3.66779358
H        1.11681689       4.89933031       3.84204466
H       -1.14713129       6.22907769       0.42747867
H       -2.19088560       4.02005649       0.25579058
H        0.58134296       7.65965709       1.35234735
H        1.74545678       7.00722810       2.50652617
H        0.18168732       7.64088534       3.08372026
H       -2.59084917       0.10730073       2.88739463
H       -1.19385126       0.83033355       3.65549297
H       -4.00987550       2.04287885       3.53278122
H       -2.65355231       2.81165964       4.33274114
H       -1.55698485       2.79866975       6.47628193
H        0.38365497       2.25032754       7.86725512
H       -0.58961681      -1.93693111       7.59606189
H       -2.53428500      -1.40100225       6.20732657
H        1.08981056      -1.15579648       9.21853075
H        1.41680010       0.56442828       9.42648480
H        2.11477899      -0.30670515       8.03677561
C       -4.37260856       1.75887834       6.11608200
C       -5.19250377       2.36303952       6.76198999
Br      -6.51820497       3.33991704       7.80636857
C        1.83613432      -1.83613432       1.83613432
H        2.07730877      -2.70115519       1.20664116
C        1.00235206      -2.27206507       3.01866190
C        0.89774262      -1.50957834       4.19216547
C        0.13612461      -1.96087052       5.27370656
C       -0.56228991      -3.16955713       5.19766257
C       -0.47721255      -3.92715705       4.02655390
C        0.29136593      -3.48086792       2.94823957
C       -1.34815471      -3.66223991       6.37607411
C        3.13202955      -1.06916220       2.13601911
C        4.13653390      -1.89377620       2.95687006
C        5.44095166      -1.12818963       3.20682837
H        5.92824864      -0.91758798       2.24774884
C        5.29885601       0.13828148       4.01953342
C        4.69313176       0.15103518       5.28594816
C        4.55319025       1.34432679       6.00048729
C        5.02133660       2.54970750       5.46897466
C        5.61043322       2.54753364       4.20139087
C        5.75391509       1.35456070       3.48816079
C        4.84226647       3.83380171       6.22309308
H        1.41058537      -0.55519594       4.28677994
H        0.08939048      -1.35774371       6.17742390
H       -1.01071595      -4.87177415       3.94262944
H        0.32945820      -4.08958068       2.04769379
H       -2.07380191      -4.42621118       6.07825222
H       -1.90789902      -2.84109171       6.83510480
H       -0.67294507      -4.09551319       7.12035015
H        3.60969750      -0.78897776       1.18686926
H        2.90805138      -0.12493172       2.64669468
H        4.35603612      -2.81982988       2.40966957
H        3.68767170      -2.20287205       3.90740933
H        4.32729747      -0.77055466       5.73408441
H        4.07928050       1.32459292       6.97924011
H        5.96539737       3.47587909       3.75922931
H        6.22175838       1.38738216       2.50623311
H        5.60366959       4.56734021       5.93659433
H        4.94124985       3.66853517       7.30139829
H        3.85324017       4.25493814       6.01698945
C        6.37124728      -1.99969188       3.87662973
C        7.15036987      -2.72957502       4.43758837
Br       8.41014520      -3.90973433       5.34461104
C       -0.00445707       0.01189536      -1.78238275
H       -0.66409135       0.67374010      -2.43557963
H        0.65740317      -0.63156657      -2.45157240
C       -0.90989263      -0.90692880      -0.91072765
C        0.90977584       0.90977584      -0.90977584
C       -0.00465871       1.77757030       0.00794375
H       -0.66225468       2.44313916      -0.64384735
H        0.64322798       2.43503045       0.67728295
C       -1.78241447       0.00034974      -0.00472694
H       -2.45427497      -0.65498947       0.64260836
H       -2.43311707       0.67328779      -0.65473579
C       -0.91132561       0.90220522       0.91563759
C       -0.01476271      -0.02253852       1.78660255
H       -0.67934791      -0.69751639       2.42135241
H        0.63392994       0.61504881       2.47327442
C        0.01484550      -1.77751727      -0.01636693
H        0.67870853      -2.42144646      -0.68295456
H       -0.62264859      -2.45592969       0.64226336
C        1.78714474       0.01002794       0.00389507
H        2.44202412       0.67113390       0.66197326
H        2.45385902      -0.65136977      -0.64189061
C        0.91606151      -0.90478549       0.90901405
