178
Properties=species:S:1:pos:R:3 pbc="F F F"
C        1.83613432       1.83613432      -1.83613432
H        2.25584145       1.14877236      -2.58049132
C        2.93814009       2.39120408      -0.96373486
C        2.79466164       3.57730648      -0.22751832
C        3.84780221       4.07061970       0.54772022
C        5.05823671       3.37584977       0.62915670
C        5.20395913       2.18508389      -0.08745538
C        4.15453523       1.69604886      -0.86988933
C        6.19420868       3.93132560       1.43537496
C        0.93328599       2.84871018      -2.55521469
C        1.70587392       3.74473350      -3.53657274
C        0.78111122       4.71724857      -4.27760987
H        0.06406335       4.14854008      -4.88098203
C        0.06221428       5.71691545      -3.40097821
C        0.74674242       6.56511345      -2.51618887
C        0.04983014       7.46018664      -1.69933397
C       -1.34532191       7.53263536      -1.75329031
C       -2.03482723       6.67949198      -2.61962570
C       -1.33864057       5.78711061      -3.43904515
C       -2.09341586       8.47119466      -0.85377904
Br       1.83388094       5.70183982      -5.61384906
H        1.86408387       4.13978493      -0.24869245
H        3.71402956       5.00254932       1.09202079
H        6.13631832       1.62602117      -0.04134815
H        4.29688299       0.76171016      -1.40813952
H        6.93534597       3.15806663       1.66275112
H        5.83108635       4.32662411       2.38941296
H        6.68869840       4.73417940       0.87995953
H        0.16283946       2.30411868      -3.11858639
H        0.39088491       3.46259795      -1.82619492
H        2.21863909       3.10247605      -4.26442043
H        2.49383810       4.29437331      -3.00974167
H        1.83297612       6.54258277      -2.45637765
H        0.60609925       8.10502182      -1.02280663
H       -3.12137841       6.70457686      -2.66554913
H       -1.90585246       5.14068115      -4.10578063
H       -3.06077599       8.74504963      -1.28865007
H       -1.53058515       9.39915044      -0.70554769
H       -2.26599120       8.00045020       0.11916753
C       -1.83613432      -1.83613432      -1.83613432
H       -2.31549168      -2.53226671      -1.13734674
C       -0.92548912      -2.59087520      -2.77671471
C       -0.51634037      -2.06944148      -4.01370459
C        0.30640481      -2.81077457      -4.86633192
C        0.76355478      -4.07750725      -4.49097731
C        0.37462753      -4.59749885      -3.25362707
C       -0.45528931      -3.86056796      -2.40461615
C        1.61702335      -4.87966471      -5.42751796
C       -2.91891609      -0.94991954      -2.46837523
C       -3.91918652      -1.74720624      -3.32078740
C       -5.01790784      -0.85234499      -3.90571683
H       -5.59757827      -0.40737709      -3.08863011
C       -4.53761895       0.21719084      -4.85967984
C       -3.75805011      -0.08167823      -5.98831641
C       -3.30720965       0.93411498      -6.83625609
C       -3.63087507       2.26974744      -6.57947613
C       -4.39258222       2.57665390      -5.44836214
C       -4.84661893       1.56146679      -4.60236306
C       -3.12020011       3.36120159      -7.47255931
Br      -6.32638924      -1.98185247      -4.84132812
H       -0.83458380      -1.08099826      -4.33697920
H        0.59135302      -2.38869284      -5.82721827
H        0.71627393      -5.58136946      -2.93859212
H       -0.73233260      -4.28992270      -1.44447737
H        2.14557766      -5.67877871      -4.89746043
H        2.37352035      -4.24365294      -5.89816491
H        0.99436516      -5.33146154      -6.20582190
H       -3.47557257      -0.44038647      -1.66958549
H       -2.46005899      -0.15335811      -3.06626067
H       -4.37592287      -2.52035079      -2.68926192
H       -3.39541881      -2.28085308      -4.12168119
H       -3.49670003      -1.11132958      -6.22390692
H       -2.70427241       0.67347466      -7.70312994
H       -4.64128445       3.61022448      -5.21768762
H       -5.44183309       1.83450197      -3.73327821
H       -3.77550720       4.23818608      -7.43560259
H       -3.08558894       3.02642730      -8.51495133
H       -2.11442178       3.66053996      -7.16140965
C       -1.83613432       1.83613432       1.83613432
H       -2.74942868       1.98748326       1.24819319
C       -1.11693350       3.15177805       2.02436749
C       -0.18445057       3.36349123       3.05154464
C        0.44026883       4.60407566       3.20689487
C        0.17052116       5.65280387       2.32264707
C       -0.74419126       5.44553212       1.28677502
C       -1.37590138       4.20820958       1.13636246
C        0.81915042       6.99065019       2.51865954
C       -2.19159118       1.04345534       3.10216434
C       -3.14611083       1.80623606       4.03483327
C       -3.52503429       0.98099202       5.26994335
H       -4.06121514       0.07870383       4.95366650
C       -2.37484148       0.62253002       6.18273645
C       -1.51477298       1.59345774       6.71981403
C       -0.44365065       1.22618816       7.53951195
C       -0.21225622      -0.11802304       7.84637058
C       -1.05430586      -1.09173611       7.30172070
C       -2.12733103      -0.72505987       6.48524403
C        0.95584736      -0.51292423       8.70032943
Br      -4.86307051       1.97450489       6.31199442
H        0.06760735       2.56947462       3.75069397
H        1.14399261       4.74452863       4.02402207
H       -0.97192371       6.24598109       0.58578284
H       -2.07583393       4.07656344       0.31433529
H        0.76928608       7.59378666       1.60616090
H        1.87688454       6.87113618       2.77404585
H        0.31573521       7.53534232       3.32331116
H       -2.67476254       0.10069913       2.81008285
H       -1.28114263       0.75661701       3.64191814
H       -4.05425213       2.05906898       3.47221446
H       -2.70088095       2.76099521       4.33607692
H       -1.67221692       2.64951777       6.51020184
H        0.20696870       1.99964682       7.94124958
H       -0.88295170      -2.14535329       7.51114917
H       -2.76660480      -1.50782646       6.08183099
H        0.76808092      -1.46585117       9.20685580
H        1.14006599       0.23636819       9.47781077
H        1.85429181      -0.61379348       8.08337676
C        1.83613432      -1.83613432       1.83613432
H        1.67132098      -1.46056121       2.85322294
C        3.27032163      -1.60018838       1.42256903
C        3.88784738      -2.32204142       0.38959764
C        5.22498732      -2.09094029       0.05477408
C        5.96778005      -1.11351104       0.72363870
C        5.35579556      -0.37837110       1.74233174
C        4.02160898      -0.61520517       2.08365926
C        7.41170630      -0.89732734       0.38112567
C        1.30944653      -3.27593113       1.75183320
C        2.07595209      -4.24563548       2.66559259
C        1.50655569      -5.66754769       2.60186628
H        0.47109940      -5.66085536       2.96163070
C        1.59433024      -6.33648327       1.24929444
C        2.80778803      -6.46511309       0.55514363
C        2.85051954      -7.06540164      -0.70657042
C        1.68355028      -7.55655185      -1.29949836
C        0.46904943      -7.41700580      -0.62176477
C        0.42614813      -6.82034677       0.64102029
C        1.72616375      -8.17202100      -2.66662691
Br       2.44668942      -6.78797846       3.91490193
H        3.34138966      -3.07918227      -0.16801068
H        5.68240223      -2.67934385      -0.73718799
H        5.91252877       0.38742837       2.27858725
H        3.57216079      -0.01958555       2.87498633
H        7.76415203       0.07477445       0.74128390
H        7.55621143      -0.91589393      -0.70380786
H        8.02498387      -1.68033804       0.83759637
H        0.25100976      -3.28751899       2.04701578
H        1.33320522      -3.63166274       0.71480982
H        2.01483862      -3.87394261       3.69675435
H        3.14085316      -4.24941023       2.40768969
H        3.73653862      -6.10356723       0.99183068
H        3.80458518      -7.15104490      -1.22170239
H       -0.45480013      -7.77466246      -1.07111475
H       -0.53505659      -6.73219949       1.14346642
H        0.90040321      -8.87819414      -2.80567364
H        2.65746149      -8.72976548      -2.81311401
H        1.65439974      -7.39222701      -3.43133528
C       -0.00445707       0.01189536      -1.78238275
H       -0.66409135       0.67374010      -2.43557963
H        0.65740317      -0.63156657      -2.45157240
C       -0.90989263      -0.90692880      -0.91072765
C        0.90977584       0.90977584      -0.90977584
C       -0.00465871       1.77757030       0.00794375
H       -0.66225468       2.44313916      -0.64384735
H        0.64322798       2.43503045       0.67728295
C       -1.78241447       0.00034974      -0.00472694
H       -2.45427497      -0.65498947       0.64260836
H       -2.43311707       0.67328779      -0.65473579
C       -0.91132561       0.90220522       0.91563759
C       -0.01476271      -0.02253852       1.78660255
H       -0.67934791      -0.69751639       2.42135241
H        0.63392994       0.61504881       2.47327442
C        0.01484550      -1.77751727      -0.01636693
H        0.67870853      -2.42144646      -0.68295456
H       -0.62264859      -2.45592969       0.64226336
C        1.78714474       0.01002794       0.00389507
H        2.44202412       0.67113390       0.66197326
H        2.45385902      -0.65136977      -0.64189061
C        0.91606151      -0.90478549       0.90901405
