194
Properties=species:S:1:pos:R:3 pbc="F F F"
C        1.84338723       1.84338723      -1.84338723
H        2.80304829       1.89674340      -1.31113970
C        1.18326846       3.20753358      -1.85514151
C        1.52819771       4.14902383      -0.87162814
C        0.87734656       5.38424127      -0.79803581
C       -0.12869927       5.71115735      -1.71203995
C       -0.47883702       4.77981533      -2.69173505
C        0.16855251       3.54314617      -2.76267404
C       -0.86978442       7.00911395      -1.59054151
C        2.05420932       1.18033384      -3.21550518
C        2.72519343      -0.09423259      -3.11349821
C        3.27822569      -1.14474665      -3.02942877
C        3.91388842      -2.35222501      -2.93280217
C        4.46692069      -3.40273907      -2.84873273
C        5.13791086      -4.67729920      -2.74673060
C        6.64910279      -4.55596317      -3.00871266
H        7.08066450      -3.79004345      -2.35052959
C        7.40843318      -5.85641873      -2.87322890
C        7.11033076      -6.97662285      -3.66602545
C        7.85281027      -8.15455266      -3.54992857
C        8.90769280      -8.24292168      -2.63554564
C        9.19629186      -7.13890009      -1.82864527
C        8.45849667      -5.95800282      -1.94824768
C        9.69530284      -9.51319611      -2.52328532
Br       7.00278968      -3.85175041      -4.82232315
H        2.29027477       3.91560068      -0.13002276
H        1.14869887       6.08251550      -0.00817773
H       -1.27636854       5.00047006      -3.39868852
H       -0.16299264       2.83936624      -3.52050147
H       -1.38425265       7.26043963      -2.52325189
H       -0.17920602       7.82921500      -1.36571771
H       -1.61523348       6.93981529      -0.79127342
H        1.09432568       1.02271039      -3.72035972
H        2.63485560       1.85464469      -3.85787710
H        4.68090967      -5.38163018      -3.45285522
H        4.97902999      -5.09957706      -1.74666887
H        6.31209412      -6.93711101      -4.40440045
H        7.61069560      -9.00097035      -4.19166091
H       10.00818302      -7.18559074      -1.10536928
H        8.72181704      -5.11179845      -1.31604258
H       10.56722597      -9.38716835      -1.87413686
H       10.05841981      -9.82266666      -3.50840985
H        9.06894580     -10.30688832      -2.10483399
C       -1.84338723      -1.84338723      -1.84338723
H       -2.86971671      -1.52104067      -1.62017400
C       -1.63004718      -3.26179369      -1.35410269
C       -2.44843339      -3.76892710      -0.33148919
C       -2.22477407      -5.04031893       0.20546935
C       -1.18207062      -5.83890909      -0.27351832
C       -0.36269532      -5.34124193      -1.28877612
C       -0.58330502      -4.06849389      -1.82257380
C       -0.90383126      -7.17464886       0.34860908
C       -1.53636237      -1.58509956      -3.32858642
C       -1.80643240      -0.22084211      -3.71718453
C       -2.02902489       0.90359432      -4.03747725
C       -2.28487381       2.19603866      -4.40563043
C       -2.50746629       3.32047510      -4.72592315
C       -2.77754274       4.68472662      -5.11452614
C       -4.15839802       4.83310053      -5.77655480
H       -4.93261177       4.41246718      -5.12100606
C       -4.51038906       6.25106432      -6.16591861
C       -3.72547718       6.99095399      -7.06521017
C       -4.09362356       8.28561304      -7.44017565
C       -5.25215387       8.87366808      -6.92183098
C       -6.02662192       8.15084321      -6.01025832
C       -5.66291728       6.85344237      -5.63926662
C       -5.63411769      10.26307771      -7.33435206
Br      -4.28860684       3.72309544      -7.40785103
H       -3.25349989      -3.16267101       0.08027269
H       -2.85969835      -5.39514230       1.01544854
H        0.47131228      -5.93335297      -1.66074935
H        0.10198360      -3.71258426      -2.58627442
H       -0.29125521      -7.79847351      -0.30971015
H       -1.83759181      -7.71546740       0.53733252
H       -0.36991752      -7.04138522       1.29544751
H       -0.48519776      -1.80256224      -3.54963578
H       -2.13082142      -2.27096004      -3.94559593
H       -1.98713459       5.02831095      -5.79331106
H       -2.72930194       5.33644564      -4.23326549
H       -2.83033639       6.55767505      -7.50672222
H       -3.47531789       8.82829230      -8.15436058
H       -6.92894734       8.58939315      -5.58840737
H       -6.29872435       6.31289864      -4.94023545
H       -6.62656479      10.53276471      -6.96039440
H       -5.65952654      10.34120402      -8.42584048
H       -4.91183928      10.98353089      -6.93858308
C       -1.84338723       1.84338723       1.84338723
H       -1.77138871       1.39550497       2.84403770
C       -3.25230144       1.68594371       1.30769841
C       -4.07202376       0.66360353       1.81322239
C       -5.34464291       0.43271696       1.28226377
C       -5.83168308       1.22462210       0.23819286
C       -5.02212086       2.24188722      -0.27129472
C       -3.74810692       2.46995142       0.25631438
C       -7.16967778       0.93310426      -0.37291099
C       -1.28932850       3.27805429       1.88266556
C        0.03951530       3.33958578       2.44438856
C        1.13476480       3.39030668       2.90736594
C        2.39366232       3.44861016       3.43951774
C        3.48891183       3.49933105       3.90249512
C        4.81774943       3.56086739       4.46422430
C        4.79681361       3.94471704       5.95394885
H        4.12966148       3.26726826       6.50354386
C        6.16149160       3.98292677       6.60380818
C        7.17929957       4.83457816       6.14445477
C        8.41925556       4.88059746       6.78684428
C        8.67347171       4.07326774       7.90052074
C        7.67220474       3.20808805       8.35015374
C        6.42937309       3.16572218       7.71239245
C       10.00842938       4.13458309       8.57923833
Br       3.96605569       5.71931445       6.22010367
H       -3.71284985       0.01368987       2.60935849
H       -5.94600317      -0.38412793       1.67751687
H       -5.36843329       2.85530140      -1.10094464
H       -3.14333554       3.25012228      -0.19658274
H       -7.54341926       1.79318016      -0.93716055
H       -7.90790680       0.70438377       0.40343612
H       -7.09073194       0.07933202      -1.05420873
H       -1.25540972       3.70718687       0.87479920
H       -1.96841962       3.91237575       2.46658203
H        5.41745406       4.27866176       3.89092700
H        5.31249610       2.58827151       4.35034638
H        7.00998492       5.49383042       5.29553806
H        9.18315839       5.56499970       6.41954487
H        7.84841984       2.56561570       9.21076570
H        5.66656127       2.49267052       8.09995191
H       10.01149456       3.55698792       9.50870112
H       10.25804196       5.16981437       8.83239059
H       10.78252967       3.72821366       7.92120748
C        1.84338723      -1.84338723       1.84338723
H        1.80944555      -1.36812169       2.83336414
C        3.24122871      -1.73711983       1.26759502
C        4.10010621      -0.72413210       1.72461136
C        5.36376315      -0.54074491       1.15511559
C        5.80245029      -1.37189525       0.12015249
C        4.95375191      -2.38018224      -0.34122078
C        3.68868526      -2.56079842       0.22488904
C        7.13088071      -1.13171244      -0.53272211
C        1.25377728      -3.26140905       1.93486202
C       -0.06088837      -3.27327684       2.53207058
C       -1.14445227      -3.28306433       3.02429576
C       -2.38991832      -3.29431833       3.59006557
C       -3.47348222      -3.30410583       4.08229074
C       -4.78814164      -3.31597845       4.67950545
C       -4.73770829      -3.66173336       6.17782721
H       -4.03901831      -2.98823078       6.69193817
C       -6.08525158      -3.64707642       6.86341852
C       -7.13646018      -4.48306275       6.45313079
C       -8.35976534      -4.47970139       7.12825013
C       -8.56354877      -3.63750152       8.22636401
C       -7.52877838      -2.78780908       8.62700635
C       -6.30257126      -2.79477818       7.95653461
C       -9.88122408      -3.64597693       8.94063920
Br      -3.94620446      -5.45023555       6.46933134
H        3.77898153      -0.04464711       2.51226956
H        5.99621575       0.26982186       1.51299821
H        5.26207795      -3.02371603      -1.16300394
H        3.05224419      -3.33611129      -0.19148041
H        7.46728095      -2.01562648      -1.08346856
H        7.89503396      -0.90266921       0.21802353
H        7.05596832      -0.29398983      -1.23410292
H        1.18216617      -3.71532217       0.93990745
H        1.93150467      -3.89821348       2.51765925
H       -5.42109666      -4.03219382       4.14103754
H       -5.26050142      -2.33389438       4.55272883
H       -7.00670195      -5.16821830       5.61786721
H       -9.15049756      -5.15289633       6.79898741
H       -7.66555541      -2.11893813       9.47457884
H       -5.51268591      -2.13237517       8.30637190
H       -9.84481993      -3.04474454       9.85426987
H      -10.15064610      -4.66737686       9.22743225
H      -10.66172993      -3.23636586       8.29225554
C       -0.00445707       0.01189536      -1.78238275
H       -0.66409135       0.67374010      -2.43557963
H        0.65740317      -0.63156657      -2.45157240
C       -0.90989263      -0.90692880      -0.91072765
C        0.90977584       0.90977584      -0.90977584
C       -0.00465871       1.77757030       0.00794375
H       -0.66225468       2.44313916      -0.64384735
H        0.64322798       2.43503045       0.67728295
C       -1.78241447       0.00034974      -0.00472694
H       -2.45427497      -0.65498947       0.64260836
H       -2.43311707       0.67328779      -0.65473579
C       -0.91132561       0.90220522       0.91563759
C       -0.01476271      -0.02253852       1.78660255
H       -0.67934791      -0.69751639       2.42135241
H        0.63392994       0.61504881       2.47327442
C        0.01484550      -1.77751727      -0.01636693
H        0.67870853      -2.42144646      -0.68295456
H       -0.62264859      -2.45592969       0.64226336
C        1.78714474       0.01002794       0.00389507
H        2.44202412       0.67113390       0.66197326
H        2.45385902      -0.65136977      -0.64189061
C        0.91606151      -0.90478549       0.90901405
