157
Properties=species:S:1:pos:R:3 pbc="F F F"
C        0.00000000       0.00000000       0.00000000
C        0.92123473       0.92123473      -0.92123473
C        2.33106616       0.32199920      -1.06810660
H        2.62957945       0.04313850      -0.04619915
C        3.37269318       1.40568896      -1.53057607
H        3.16654475       2.30481230      -0.92978437
C        3.22695530       1.83958142      -2.99027683
C        4.01434922       1.30418556      -4.01989277
C        3.85514914       1.72481837      -5.34541538
C        2.89618648       2.68450285      -5.67548729
C        2.09420418       3.21138246      -4.66213039
C        2.26520631       2.80382465      -3.33487348
C        2.71906256       3.10582498      -7.10458440
C        4.79234243       0.96672877      -1.12043848
Br       6.04473498       2.46853886      -1.17493925
C        2.34980976      -0.96427595      -1.89174429
C        1.70404498      -1.06258529      -3.13291820
C        1.69048364      -2.26456191      -3.84526258
C        2.31319552      -3.40200162      -3.32749643
C        2.98518515      -3.30748970      -2.10643209
C        3.00110978      -2.10316975      -1.39231596
C        2.29458236      -4.68758503      -4.09977871
H        0.94858716       1.88200564      -0.39670458
H        0.38078016       1.04640267      -1.86207703
H        4.76335404       0.54202102      -3.82358152
H        4.48808903       1.29225851      -6.11681871
H        1.33002169       3.94973000      -4.89525069
H        1.63400080       3.25444494      -2.57197933
H        2.10519274       4.00851440      -7.18127414
H        2.23283688       2.30715440      -7.67314134
H        3.69019542       3.32930310      -7.55909301
H        4.81860144       0.63897153      -0.07611408
H        5.21650137       0.17299134      -1.73894036
H        1.19985166      -0.20532416      -3.57304558
H        1.17943406      -2.30502135      -4.80408331
H        3.49047638      -4.17599105      -1.68956149
H        3.51034762      -2.07425823      -0.43421226
H        2.45800030      -5.54658714      -3.44094589
H        3.07554617      -4.67727658      -4.86559084
H        1.32234581      -4.83142335      -4.58377726
C       -0.92123473      -0.92123473      -0.92123473
C       -2.40640940      -0.54945043      -0.76531212
H       -2.56776969      -0.47169200       0.32054459
C       -3.34601421      -1.71423173      -1.24871227
H       -2.91771998      -2.64267187      -0.84074956
C       -3.38438255      -1.90656165      -2.76586934
C       -4.39947837      -1.36869803      -3.57025115
C       -4.40433384      -1.56487686      -4.95617218
C       -3.38717122      -2.29559212      -5.57341328
C       -2.36174256      -2.82042007      -4.78555441
C       -2.36626353      -2.63920456      -3.39843635
C       -3.39161586      -2.47478746      -7.06306862
C       -4.72566287      -1.57945464      -0.57439217
Br      -5.74401396      -3.24507591      -0.69912322
C       -2.74366043       0.81948855      -1.35310623
C       -2.33325281       1.19849241      -2.63961749
C       -2.60856743       2.47474442      -3.13736129
C       -3.29164957       3.40809398      -2.35513473
C       -3.73152389       3.03129724      -1.08390089
C       -3.45788955       1.75211522      -0.58448166
C       -3.58382801       4.77527343      -2.89822145
H       -0.72472463      -1.93775428      -0.56481847
H       -0.53210543      -0.82036736      -1.93678707
H       -5.20592575      -0.77695732      -3.14607352
H       -5.21129119      -1.13835959      -5.54751548
H       -1.54996479      -3.38118198      -5.24385561
H       -1.55984976      -3.08242847      -2.81814684
H       -2.67728543      -3.24303905      -7.37465680
H       -3.12463068      -1.53411232      -7.55438961
H       -4.38305356      -2.78951935      -7.40601862
H       -4.62454234      -1.41199961       0.50285490
H       -5.35471213      -0.78750979      -0.98621115
H       -1.79267636       0.50790679      -3.28280351
H       -2.27459692       2.73492018      -4.13881928
H       -4.27862266       3.73596718      -0.46139136
H       -3.79184800       1.50361128       0.41793507
H       -3.75581200       5.49307407      -2.08962114
H       -4.47153168       4.74424890      -3.53657766
H       -2.73568388       5.14551604      -3.48453188
C       -0.92123473       0.92123473       0.92123473
C       -0.06821965       1.85580566       1.79714665
H        0.71470301       1.21034710       2.22327300
C       -0.88453215       2.39670733       3.02771873
H       -1.43271048       1.53333375       3.43509718
C       -1.95047133       3.43462214       2.67172008
C       -1.73148249       4.81456088       2.79238417
C       -2.72977405       5.73715954       2.45844930
C       -3.96915191       5.30198699       1.98503772
C       -4.19256277       3.93168974       1.84346452
C       -3.20105151       3.00910486       2.19374807
C       -5.01992381       6.30365237       1.60589575
C        0.08702293       2.81895028       4.14758233
Br      -0.83630350       2.98799928       5.86391031
C        0.65107289       2.93635445       0.99199655
C       -0.01446209       3.72106364       0.03885217
C        0.67437581       4.66847244      -0.72291232
C        2.04945974       4.84614094      -0.55799087
C        2.71683993       4.09131253       0.40965494
C        2.02751751       3.14278598       1.17498752
C        2.78032774       5.86635982      -1.37925605
H       -1.48719551       0.20921449       1.53088737
H       -1.60907186       1.43450750       0.24568049
H       -0.78052529       5.21000806       3.13842324
H       -2.52657203       6.79962468       2.57096955
H       -5.14446582       3.56743900       1.46309756
H       -3.42280553       1.94929468       2.08832487
H       -5.99584881       5.82693300       1.47219946
H       -4.74517655       6.79859347       0.66936259
H       -5.12796544       7.05860388       2.39202221
H        0.84135479       2.04635031       4.32869152
H        0.60235379       3.76448947       3.96629740
H       -1.08353454       3.61353568      -0.12949714
H        0.12674116       5.25876417      -1.45352699
H        3.78524094       4.22224572       0.56704205
H        2.58403534       2.55567286       1.89866413
H        3.84931674       5.63652905      -1.43485325
H        2.65604653       6.86076380      -0.94085683
H        2.39829577       5.87893619      -2.40594070
C        0.92123473      -0.92123473       0.92123473
C        0.07136834      -1.90483294       1.74497068
H       -0.74185740      -1.29458289       2.16619161
C        0.86787581      -2.45806587       2.98301653
H        1.37881203      -1.59175034       3.43057905
C        1.97335827      -3.45446175       2.62899353
C        1.79144127      -4.84299647       2.70398981
C        2.82533698      -5.72673670       2.37330920
C        4.06441045      -5.24291451       1.94885166
C        4.25162098      -3.86327692       1.85281914
C        3.22403628      -2.97983562       2.20003255
C        5.15433611      -6.20284545       1.57229037
C       -0.12232457      -2.94025319       4.06158107
Br       0.75645598      -3.13309590       5.79866120
C       -0.59290442      -2.98137957       0.88880295
C        0.12205882      -3.71869984      -0.06638077
C       -0.51690579      -4.66262004      -0.87452994
C       -1.89033916      -4.88399135      -0.75496187
C       -2.60668473      -4.17700311       0.21380916
C       -1.96736994      -3.23205657       1.02556936
C       -2.56748288      -5.90011591      -1.62585700
H        1.44861886      -0.21155164       1.56712688
H        1.64267209      -1.39482065       0.25176711
H        0.84300400      -5.27521816       3.01073443
H        2.65014982      -6.79737526       2.44964117
H        5.20288913      -3.46119602       1.51091722
H        3.41763616      -1.91153055       2.13125837
H        6.11931868      -5.69491394       1.48074866
H        4.92086037      -6.67781354       0.61445870
H        5.26202974      -6.97707042       2.33949137
H       -0.90374283      -2.19499747       4.24243241
H       -0.60445781      -3.89433912       3.83855177
H        1.19188116      -3.57599691      -0.20030499
H        0.06825848      -5.21553207      -1.60529454
H       -3.67484123      -4.34275252       0.33613554
H       -2.56112021      -2.68236996       1.74905190
H       -3.64072107      -5.69919510      -1.70611497
H       -2.42669719      -6.90297474      -1.21241712
H       -2.15625790      -5.87184301      -2.64088539
