186
Properties=species:S:1:pos:R:3 pbc="F F F"
C        1.83113876       1.83113876      -1.83113876
C        3.24097019       1.23190322      -1.97801062
H        3.53948347       0.95304253      -0.95610317
C        4.28259721       2.31559298      -2.44048010
H        4.07644878       3.21471632      -1.83968839
C        4.13685932       2.74948544      -3.90018086
C        4.92425324       2.21408959      -4.92979680
C        4.76505317       2.63472239      -6.25531940
C        3.80609050       3.59440687      -6.58539131
C        3.00410821       4.12128648      -5.57203442
C        3.17511033       3.71372868      -4.24477751
C        3.62896658       4.01572901      -8.01448842
C        5.70224645       1.87663280      -2.03034250
C        3.25971379      -0.05437193      -2.80164832
C        2.61394900      -0.15268126      -4.04282222
C        2.60038766      -1.35465788      -4.75516661
C        3.22309955      -2.49209760      -4.23740045
C        3.89508917      -2.39758567      -3.01633611
C        3.91101381      -1.19326573      -2.30221998
C        3.20448638      -3.77768101      -5.00968273
H        1.85849118       2.79190967      -1.30660861
H        1.29068419       1.95630669      -2.77198105
H        5.67325806       1.45192505      -4.73348555
H        5.39799306       2.20216253      -7.02672274
H        2.23992571       4.85963403      -5.80515471
H        2.54390482       4.16434896      -3.48188336
H        3.01509676       4.91841843      -8.09117816
H        3.14274090       3.21705842      -8.58304536
H        4.60009944       4.23920713      -8.46899704
H        5.72850546       1.54887556      -0.98601810
H        6.12640539       1.08289537      -2.64884439
H        2.10975569       0.70457986      -4.48294960
H        2.08933808      -1.39511733      -5.71398734
H        4.40038041      -3.26608702      -2.59946552
H        4.42025164      -1.16435420      -1.34411629
H        3.36790433      -4.63668311      -4.35084992
H        3.98545020      -3.76737256      -5.77549487
H        2.23224983      -3.92151933      -5.49368129
C        6.62413819       2.98212190      -2.07046076
C        7.39622252       3.90796902      -2.10405980
Br       8.64461758       5.40498551      -2.15838661
C       -1.83113876      -1.83113876      -1.83113876
C       -2.92615838      -1.00086726      -2.52385839
H       -3.35052386      -0.36959202      -1.72851329
C       -4.11120191      -1.90848679      -3.01898158
H       -4.32438839      -2.60926738      -2.19719772
C       -3.77589065      -2.77977134      -4.23086363
C       -4.11340887      -2.41301952      -5.54171123
C       -3.79196975      -3.23496887      -6.62815633
C       -3.11491706      -4.44006026      -6.43091137
C       -2.75765488      -4.80706872      -5.13270551
C       -3.09433463      -3.99405806      -4.04522382
C       -2.75366371      -5.29763860      -7.60788170
C       -5.38905021      -1.05821366      -3.16195789
C       -2.37320820      -0.05002644      -3.58375554
C       -1.46465820      -0.47554214      -4.56388963
C       -0.93208153       0.42308352      -5.49189838
C       -1.28666596       1.77308964      -5.45482608
C       -2.21385407       2.20204420      -4.50202974
C       -2.74972232       1.30230900      -3.57255475
C       -0.71088779       2.73019002      -6.45579033
H       -2.26201502      -2.55910498      -1.13588945
H       -1.15484660      -2.35035520      -2.51377012
H       -4.62456958      -1.47846469      -5.75563438
H       -4.07533533      -2.92132959      -7.63021341
H       -2.21699016      -5.73396511      -4.95375919
H       -2.81604977      -4.32659319      -3.04749418
H       -2.43680622      -6.29622400      -7.29166312
H       -1.93579193      -4.83680027      -8.17025249
H       -3.61817684      -5.42121057      -8.26891620
H       -5.55143707      -0.43641607      -2.27554598
H       -5.40548517      -0.41118239      -4.04147759
H       -1.15381039      -1.51579402      -4.62768074
H       -0.22951509       0.05871135      -6.23740435
H       -2.51710766       3.24601881      -4.46267006
H       -3.44699724       1.67676497      -2.82978146
H       -0.75465833       3.76039608      -6.08780889
H       -1.26506136       2.66831142      -7.39682257
H        0.34289896       2.49931490      -6.64662565
C       -6.56500950      -1.88693142      -3.22477993
C       -7.54987542      -2.58098254      -3.27739339
Br      -9.14232030      -3.70320450      -3.36246490
C       -1.83113876       1.83113876       1.83113876
C       -1.63847381       3.31992192       1.49248830
H       -0.54829779       3.46088629       1.43944509
C       -2.12658993       4.24589480       2.66618555
H       -1.74594070       3.79122798       3.59368480
C       -3.64625936       4.31100340       2.82926286
C       -4.41945187       5.35251143       2.29617633
C       -5.80867650       5.38140171       2.46501676
C       -6.46046595       4.36264906       3.16277368
C       -5.70373126       3.31140236       3.68229549
C       -4.31342632       3.29156531       3.52862488
C       -7.95304974       4.39355290       3.31258137
C       -1.42258954       5.61407602       2.57255619
C       -2.19180948       3.69589862       0.11928209
C       -3.47827831       3.31904320      -0.29323154
C       -3.94468861       3.62946507      -1.57325729
C       -3.13049348       4.31494766      -2.47703875
C       -1.85866987       4.72160928      -2.06643954
C       -1.39061064       4.41277545      -0.78341803
C       -3.64006470       4.64493466      -3.84851125
H       -1.49921376       1.60746322       2.85033247
H       -2.85193742       1.46460626       1.70242824
H       -3.96760728       6.16177712       1.72928427
H       -6.37526615       6.20836594       2.04324624
H       -6.18916723       2.49810709       4.21744013
H       -3.75821177       2.46503725       3.96688813
H       -8.29408578       3.67061589       4.05999168
H       -8.43050257       4.15513698       2.35720513
H       -8.28263030       5.38528974       3.64038357
H       -0.34439482       5.49460796       2.42439634
H       -1.80587929       6.26680127       1.78546458
H       -4.14578639       2.77800184       0.37349692
H       -4.94710158       3.32093036      -1.85982385
H       -1.21141767       5.26986477      -2.74752354
H       -0.38700451       4.72150920      -0.50849998
H       -2.81393609       4.81473630      -4.54660125
H       -4.26126848       5.54452793      -3.81222391
H       -4.23542853       3.81624340      -4.24726014
C       -1.52426101       6.34103692       3.81142292
C       -1.60941086       6.94986668       4.84897380
Br      -1.74709098       7.93429290       6.52660582
C        1.83113876      -1.83113876       1.83113876
C        1.08183651      -3.10302910       2.26601842
H        0.09505703      -2.75082456       2.60274758
C        1.74818576      -3.76103739       3.52944714
H        1.97343541      -2.93546534       4.22195274
C        3.08707554      -4.44717161       3.25227847
C        3.19841689      -5.82904533       3.04067741
C        4.44015772      -6.42460646       2.79033078
C        5.60072536      -5.65029526       2.73486807
C        5.50008912      -4.27150140       2.92583860
C        4.26156413      -3.67867981       3.19337257
C        6.92078093      -6.29928569       2.43911739
C        0.71116467      -4.63095001       4.26710708
C        0.82654625      -4.06945238       1.11099155
C        1.84032673      -4.44591878       0.21784445
C        1.57230686      -5.29084900      -0.86225948
C        0.27979016      -5.77101437      -1.08240213
C       -0.73117232      -5.42685368      -0.18184175
C       -0.46367296      -4.58165433       0.90198669
C        0.00170692      -6.67849376      -2.24371257
H        2.07103370      -1.19586314       2.69011261
H        2.74399928      -2.01472996       1.26024269
H        2.32660469      -6.47726220       3.05480177
H        4.48921103      -7.50024440       2.63742289
H        6.38730548      -3.64415888       2.87325009
H        4.22936875      -2.60367091       3.35709748
H        7.75428445      -5.62182030       2.64858860
H        6.96750727      -6.59014752       1.38518989
H        7.05603954      -7.18932732       3.06293675
H       -0.23184921      -4.09166608       4.40358225
H        0.49297268      -5.58414940       3.78102306
H        2.86070800      -4.09166524       0.34491191
H        2.38216474      -5.56140975      -1.53536640
H       -1.74294470      -5.80045040      -0.32374680
H       -1.27980062      -4.31413347       1.56568088
H       -1.05831449      -6.65713508      -2.51674946
H        0.28030154      -7.70606579      -1.99279483
H        0.56927148      -6.36017760      -3.12503729
C        1.13799553      -4.92902016       5.60970516
C        1.49546637      -5.17865392       6.73413105
Br       2.07346649      -5.58229060       8.55223261
C       -0.00445707       0.01189536      -1.78238275
H       -0.66409135       0.67374010      -2.43557963
H        0.65740317      -0.63156657      -2.45157240
C       -0.90989263      -0.90692880      -0.91072765
C        0.90977584       0.90977584      -0.90977584
C       -0.00465871       1.77757030       0.00794375
H       -0.66225468       2.44313916      -0.64384735
H        0.64322798       2.43503045       0.67728295
C       -1.78241447       0.00034974      -0.00472694
H       -2.45427497      -0.65498947       0.64260836
H       -2.43311707       0.67328779      -0.65473579
C       -0.91132561       0.90220522       0.91563759
C       -0.01476271      -0.02253852       1.78660255
H       -0.67934791      -0.69751639       2.42135241
H        0.63392994       0.61504881       2.47327442
C        0.01484550      -1.77751727      -0.01636693
H        0.67870853      -2.42144646      -0.68295456
H       -0.62264859      -2.45592969       0.64226336
C        1.78714474       0.01002794       0.00389507
H        2.44202412       0.67113390       0.66197326
H        2.45385902      -0.65136977      -0.64189061
C        0.91606151      -0.90478549       0.90901405
