194
Properties=species:S:1:pos:R:3 pbc="F F F"
C        1.83015351       1.83015351      -1.83015351
C        3.31793079       1.59180719      -1.54816424
H        3.49214589       0.50686678      -1.54809806
C        4.16680349       2.19884172      -2.66013389
C        4.12167837       3.57188305      -2.95303466
C        4.90376420       4.10960490      -3.97818745
C        5.75661866       3.29086806      -4.72516152
C        5.80295018       1.92244877      -4.44175487
C        5.02108169       1.38251145      -3.41666457
C        6.57524060       3.87412945      -5.83834165
C        3.71600308       2.10522716      -0.25856839
C        4.04410961       2.52839799       0.80433230
C        4.55846950       3.21260793       2.06973897
C        5.05622503       3.82521160       2.97737312
C        5.76532619       4.60806715       4.01209647
H        6.38334327       3.90578741       4.58799391
C        4.79452892       5.28391956       4.97099122
C        3.87486817       6.24980981       4.53078995
C        3.03047875       6.89876558       5.43637645
C        3.08232261       6.59248865       6.79931028
C        3.98598339       5.62092440       7.24199131
C        4.83227118       4.97293144       6.33835570
C        2.19530020       7.29399524       7.78463803
C        6.68789643       5.65903163       3.38034047
Br       8.22049770       4.82600022       2.49534591
H        1.51393529       2.86102427      -1.63986064
H        1.56224211       1.56036318      -2.85710941
H        3.48307602       4.24007555      -2.37893441
H        4.84818031       5.17597659      -4.18612112
H        6.45373623       1.26476896      -5.01388042
H        5.08927992       0.31550092      -3.21426193
H        7.37868072       3.19426037      -6.14044891
H        7.04282391       4.81155085      -5.51941648
H        5.94007298       4.06816042      -6.70822260
H        3.80799347       6.51029993       3.47625021
H        2.33333225       7.64755173       5.06714363
H        4.03950565       5.36511715       8.29819899
H        5.52734534       4.22626537       6.71689302
H        2.80173609       7.86067716       8.49868845
H        1.58415447       6.56667079       8.32850967
H        1.51781973       7.99575139       7.28724778
H        6.18928335       6.26497404       2.61587840
H        7.12307003       6.32581701       4.13248107
C       -1.83015351      -1.83015351      -1.83015351
C       -1.21970059      -3.22419572      -2.01400592
H       -0.92615769      -3.59776687      -1.02318618
C       -2.26099686      -4.18246060      -2.58232163
C       -2.87759811      -3.94678534      -3.82221264
C       -3.83243823      -4.83394486      -4.32517345
C       -4.18375370      -5.98153996      -3.60735458
C       -3.57706566      -6.21975449      -2.37033367
C       -2.62171222      -5.33324109      -1.86530439
C       -5.22629571      -6.91585644      -4.14555954
C       -0.03917596      -3.19555689      -2.84506578
C        0.93382799      -3.17196167      -3.53004162
C        2.07265340      -3.22709200      -4.54689987
C        2.88495377      -3.36590876      -5.42310851
C        3.81786886      -3.64280075      -6.53636498
H        4.65271262      -4.22742444      -6.12642494
C        4.38255111      -2.35950806      -7.13050031
C        3.55588863      -1.40477530      -7.74500135
C        4.10049114      -0.25972399      -8.33363503
C        5.48103329      -0.04095635      -8.31557793
C        6.30835211      -0.98095310      -7.69231549
C        5.76573909      -2.12715908      -7.10542693
C        6.08076642       1.17385331      -8.95927714
C        3.14130069      -4.47105912      -7.63682916
Br       2.79222825      -6.30143687      -7.04194339
H       -1.95675233      -1.28614574      -2.77192214
H       -2.79419198      -1.87304829      -1.31247443
H       -2.61369213      -3.07338383      -4.41501001
H       -4.29664981      -4.62667454      -5.28695367
H       -3.83927933      -7.10226522      -1.79084107
H       -2.16019593      -5.55396563      -0.90488121
H       -5.19696269      -7.88316908      -3.63325823
H       -5.05795765      -7.10489472      -5.21093887
H       -6.22237174      -6.48272703      -4.01135723
H        2.47696194      -1.54406790      -7.77493723
H        3.43603807       0.45866633      -8.80844475
H        7.38518643      -0.82765551      -7.66395473
H        6.43814262      -2.84094026      -6.63392005
H        6.74064505       0.87639271      -9.78076256
H        6.65573752       1.74662065      -8.22467375
H        5.30938023       1.83379371      -9.36949728
H        2.17295305      -4.06373731      -7.94759473
H        3.78063364      -4.57721654      -8.51982308
C       -1.83015351       1.83015351       1.83015351
C       -3.16557550       2.14553872       1.14678800
H       -3.58026418       1.20259239       0.76425417
C       -4.15401378       2.71028145       2.16148387
C       -3.88267468       3.89015151       2.87376990
C       -4.79861182       4.39048264       3.80246209
C       -6.01021810       3.73081574       4.03161440
C       -6.28457193       2.55334948       3.32923241
C       -5.36937402       2.05103455       2.39984914
C       -6.97679224       4.26388559       5.04703386
C       -3.00520540       3.04555665       0.02903658
C       -2.87303514       3.78736923      -0.89222908
C       -2.78717002       4.87540309      -1.96123464
C       -2.81547972       5.80843337      -2.71984958
C       -2.95821301       6.99439905      -3.59131519
H       -3.50999896       6.67818923      -4.48705143
C       -1.60492396       7.53522794      -4.03269465
C       -0.67115880       8.03073163      -3.10800240
C        0.54277962       8.57412107      -3.53847356
C        0.85239757       8.62845385      -4.90055530
C       -0.06720258       8.12327564      -5.82556174
C       -1.28204683       7.58182703      -5.39702693
C        2.14297944       9.22545465      -5.37781781
C       -3.75909999       8.10326665      -2.89577904
Br      -5.64267774       7.61210685      -2.70363258
H       -1.23761042       2.72331123       2.05389855
H       -1.97039024       1.25678897       2.75253549
H       -2.95785890       4.43827421       2.70595287
H       -4.56283340       5.30494654       4.34249809
H       -7.21750539       2.01919466       3.49568556
H       -5.61864519       1.13865755       1.86174004
H       -7.97030675       3.82072440       4.92235886
H       -7.08652656       5.34806143       4.93920326
H       -6.62101312       4.03830368       6.05713920
H       -0.88059046       8.00189337      -2.04044064
H        1.24332051       8.95666305      -2.79960219
H        0.15613286       8.15260775      -6.89005107
H       -1.97725485       7.20276483      -6.14330199
H        1.94299275      10.10506327      -5.99834572
H        2.70569199       8.49167989      -5.96367231
H        2.77404996       9.54087473      -4.54050143
H       -3.39909870       8.32424153      -1.88496124
H       -3.76610376       9.02995016      -3.47964795
C        1.83015351      -1.83015351       1.83015351
C        1.19492174      -3.20681955       2.05616093
H        0.87274108      -3.59457531       1.07979435
C        2.22791265      -4.17494212       2.62292432
C        2.87542754      -3.92670011       3.84446843
C        3.82209100      -4.82327240       4.34619314
C        4.13420152      -5.99271656       3.64573016
C        3.49660360      -6.24364733       2.42690289
C        2.54936978      -5.34775295       1.92313499
C        5.16829640      -6.93755292       4.18186238
C        0.03313424      -3.13590420       2.91076019
C       -0.92442639      -3.07746399       3.61513770
C       -2.04233264      -3.08730714       4.65636396
C       -2.83857780      -3.19064424       5.55199706
C       -3.75322504      -3.42451601       6.69000591
H       -4.60853304      -3.99969161       6.30997820
C       -4.27841337      -2.11747783       7.26839279
C       -3.41926032      -1.16793516       7.84521318
C       -3.92736490       0.00038250       8.42061528
C       -5.30313927       0.24795294       8.42659319
C       -6.16282817      -0.68702823       7.84071642
C       -5.65669917      -1.85642163       7.26712447
C       -5.86373405       1.48831066       9.05670211
C       -3.07081799      -4.24390566       7.79349992
Br      -2.77252023      -6.09323153       7.23044072
H        1.98796250      -1.26951471       2.75734299
H        2.78189937      -1.90422087       1.29359446
H        2.64234353      -3.03577825       4.42396420
H        4.31079626      -4.60596621       5.29351555
H        3.72808903      -7.14336226       1.86093432
H        2.06310801      -5.57853641       0.97739835
H        5.10802749      -7.91445503       3.69090748
H        5.01869839      -7.10081650       5.25427636
H        6.17008155      -6.52852250       4.01785195
H       -2.34306642      -1.32942322       7.85568639
H       -3.23821941       0.71422588       8.86618564
H       -7.23660642      -0.51155301       7.83147722
H       -6.35362588      -2.56542072       6.82492285
H       -6.51207913       1.22203124       9.89783517
H       -6.44213587       2.05776432       8.32221577
H       -5.07028582       2.14012121       9.43673037
H       -2.08784943      -3.85084405       8.07538437
H       -3.69334990      -4.31812465       8.69163122
C       -0.00445707       0.01189536      -1.78238275
H       -0.66409135       0.67374010      -2.43557963
H        0.65740317      -0.63156657      -2.45157240
C       -0.90989263      -0.90692880      -0.91072765
C        0.90977584       0.90977584      -0.90977584
C       -0.00465871       1.77757030       0.00794375
H       -0.66225468       2.44313916      -0.64384735
H        0.64322798       2.43503045       0.67728295
C       -1.78241447       0.00034974      -0.00472694
H       -2.45427497      -0.65498947       0.64260836
H       -2.43311707       0.67328779      -0.65473579
C       -0.91132561       0.90220522       0.91563759
C       -0.01476271      -0.02253852       1.78660255
H       -0.67934791      -0.69751639       2.42135241
H        0.63392994       0.61504881       2.47327442
C        0.01484550      -1.77751727      -0.01636693
H        0.67870853      -2.42144646      -0.68295456
H       -0.62264859      -2.45592969       0.64226336
C        1.78714474       0.01002794       0.00389507
H        2.44202412       0.67113390       0.66197326
H        2.45385902      -0.65136977      -0.64189061
C        0.91606151      -0.90478549       0.90901405
