173
Properties=species:S:1:pos:R:3 pbc="F F F"
C        0.00000000       0.00000000       0.00000000
C        0.92024949       0.92024949      -0.92024949
C        2.40802677       0.68190317      -0.63826022
H        2.58224187      -0.40303724      -0.63819404
C        3.25689946       1.28893770      -1.75022987
C        3.21177434       2.66197903      -2.04313064
C        3.99386018       3.19970087      -3.06828342
C        4.84671463       2.38096404      -3.81525750
C        4.89304616       1.01254475      -3.53185084
C        4.11117766       0.47260743      -2.50676054
C        5.66533658       2.96422542      -4.92843762
C        2.80609905       1.19532314       0.65133564
C        3.13420559       1.61849396       1.71423632
C        3.64856548       2.30270391       2.97964299
C        4.14632100       2.91530757       3.88727715
C        4.85542217       3.69816313       4.92200050
H        5.47343925       2.99588338       5.49789794
C        3.88462489       4.37401553       5.88089525
C        2.96496414       5.33990578       5.44069397
C        2.12057472       5.98886156       6.34628048
C        2.17241859       5.68258463       7.70921431
C        3.07607937       4.71102038       8.15189533
C        3.92236716       4.06302742       7.24825972
C        1.28539618       6.38409121       8.69454205
C        5.77799241       4.74912761       4.29024450
Br       7.31059368       3.91609620       3.40524994
H        0.60403127       1.95112025      -0.72995662
H        0.65233808       0.65045916      -1.94720538
H        2.57317200       3.33017152      -1.46903038
H        3.93827629       4.26607256      -3.27621710
H        5.54383221       0.35486494      -4.10397639
H        4.17937590      -0.59440310      -2.30435791
H        6.46877670       2.28435635      -5.23054489
H        6.13291988       3.90164683      -4.60951246
H        5.03016896       3.15825640      -5.79831857
H        2.89808945       5.60039591       4.38615424
H        1.42342822       6.73764770       5.97704765
H        3.12960163       4.45521313       9.20810301
H        4.61744131       3.31636134       7.62679704
H        1.89183207       6.95077314       9.40859248
H        0.67425044       5.65676676       9.23841369
H        0.60791570       7.08584736       8.19715180
H        5.27937933       5.35507001       3.52578243
H        6.21316601       5.41591298       5.04238509
C       -0.92024949      -0.92024949      -0.92024949
C       -0.11078741      -2.04941468      -1.56798806
H        0.49178514      -2.52651574      -0.78266806
C       -1.04921363      -3.10637315      -2.14048025
C       -1.99307263      -2.79175806      -3.13205333
C       -2.84731056      -3.77258906      -3.64194486
C       -2.76996082      -5.09097150      -3.18200385
C       -1.83570660      -5.40992173      -2.19181342
C       -0.98033159      -4.42998522      -1.68022883
C       -3.70673770      -6.13157109      -3.71969083
C        0.79144840      -1.55857563      -2.58295932
C        1.53508352      -1.15402734      -3.41951941
C        2.36762300      -0.71599769      -4.62325170
C        2.94318690      -0.46768512      -5.64985320
C        3.60062598      -0.27240385      -6.95980693
H        4.61113283      -0.69688053      -6.88567699
C        3.72948123       1.20368135      -7.31090776
C        2.60129748       2.02143559      -7.48690902
C        2.74008532       3.36046095      -7.86370208
C        4.00819816       3.91256818      -8.06655525
C        5.13627813       3.10718595      -7.87866849
C        4.99916358       1.76791746      -7.50421590
C        4.17137788       5.34253999      -8.48886321
C        2.84726680      -1.00810328      -8.07603904
Br       3.03180189      -2.94790505      -7.90533678
H       -1.38634043      -0.24939761      -1.64937010
H       -1.69378872      -1.30746024      -0.24875366
H       -2.06696402      -1.77998520      -3.52542468
H       -3.57099895      -3.50182923      -4.40773777
H       -1.76175636      -6.42724027      -1.81367691
H       -0.25685598      -4.71389415      -0.91858057
H       -3.35679871      -7.14217922      -3.48470000
H       -3.77865922      -6.05569413      -4.80972583
H       -4.70232084      -5.99971001      -3.28471308
H        1.59992694       1.62310045      -7.33535851
H        1.84786960       3.96754589      -7.99944377
H        6.13247818       3.51856734      -8.02775726
H        5.89715449       1.16786243      -7.37202253
H        4.64806146       5.39124883      -9.47332301
H        4.78709314       5.88360465      -7.76330130
H        3.20587184       5.85440798      -8.55689108
H        1.77073439      -0.80498067      -8.07442063
H        3.25083392      -0.77118662      -9.06634120
C       -0.92024949       0.92024949       0.92024949
C       -2.17379590       1.38444566       0.16994859
H       -2.62390440       0.50547040      -0.31197613
C       -3.19430531       1.94963505       1.15212667
C       -2.89514956       3.05179706       1.96993740
C       -3.84155208       3.55348886       2.86680353
C       -5.11087160       2.97373695       2.95832762
C       -5.41361185       1.87349320       2.15033670
C       -4.46803249       1.36993394       1.25257921
C       -6.11193882       3.50570413       3.94035667
C       -1.86502865       2.34661702      -0.86155912
C       -1.61054703       3.13965794      -1.71174174
C       -1.36626194       4.29105423      -2.68568978
C       -1.27024503       5.27499124      -3.37088485
C       -1.26145708       6.52723557      -4.15710785
H       -1.76422932       6.31847173      -5.11127636
C        0.15655654       6.99303065      -4.45872893
C        1.04973545       7.34886915      -3.43495775
C        2.32850633       7.82708459      -3.73542246
C        2.74436856       7.95411445      -5.06395699
C        1.86461495       7.58759411      -6.08777475
C        0.58522887       7.11151554      -5.78915182
C        4.10674456       8.48311289      -5.40142299
C       -2.03244035       7.64189969      -3.43746453
Br      -3.95528335       7.28370755      -3.41755096
H       -0.28465603       1.74738511       1.25306699
H       -1.17088609       0.29527543       1.78384110
H       -1.92365870       3.53817432       1.91054089
H       -3.58343431       4.40663142       3.49050022
H       -6.39208078       1.40172472       2.20886803
H       -4.73956859       0.51976116       0.63000095
H       -7.12195663       3.14972022       3.71200108
H       -6.13590409       4.60000571       3.90816937
H       -5.85128852       3.18249135       4.95296406
H        0.75782668       7.26043827      -2.39028046
H        2.99591543       8.10158348      -2.92163977
H        2.17015198       7.67523576      -7.12837204
H       -0.07606381       6.84059533      -6.60965353
H        4.01767843       9.41723889      -5.96554774
H        4.65908708       7.75191281      -6.00022223
H        4.69277697       8.68917853      -4.49979030
H       -1.73595836       7.76243607      -2.38972751
H       -1.92903640       8.60549683      -3.94783934
C        0.92024949      -0.92024949       0.92024949
C        0.07724086      -1.83729481       1.81365448
H       -0.68303080      -2.31796003       1.18246943
C        0.94999683      -2.93697811       2.40909209
C        2.05456016      -2.63844051       3.22388335
C        2.84515944      -3.65921368       3.75747134
C        2.54348529      -5.00011608       3.49933480
C        1.44802217      -5.30408695       2.68533263
C        0.65595941      -4.28424093       2.15034530
C        3.41175671      -6.08775484       4.05848807
C       -0.60729846      -1.10463076       2.85275427
C       -1.17150518      -0.50076600       3.70920242
C       -1.76763450       0.19336771       4.93262860
C       -2.15924964       0.64347970       5.97708077
C       -2.59818862       1.08761262       7.31738604
H       -3.65341545       0.80273716       7.42757731
C       -2.49504313       2.59897962       7.47176793
C       -1.26181000       3.26629931       7.39228526
C       -1.18160770       4.64752686       7.59229037
C       -2.33169746       5.39214565       7.86963202
C       -3.56497606       4.73551324       7.93569372
C       -3.64652504       3.35456722       7.73822711
C       -2.25796710       6.87171690       8.10462934
C       -1.79193366       0.39602014       8.42482931
Br      -2.23454691      -1.50509115       8.55089570
H        1.56227359      -0.23700456       1.48582998
H        1.53903966      -1.49105629       0.21990667
H        2.30600085      -1.60647220       3.45990085
H        3.69645194      -3.40061967       4.38349434
H        1.19797490      -6.33963144       2.46506720
H       -0.19615393      -4.55527750       1.53020714
H        2.91136224      -7.06059844       4.01171726
H        3.64411363      -5.88983804       5.11012751
H        4.34532471      -6.15062547       3.49079375
H       -0.34782298       2.71634780       7.17650190
H       -0.21164706       5.13590998       7.53158532
H       -4.47263000       5.29725958       8.14660133
H       -4.62080376       2.87433332       7.80214269
H       -2.58274685       7.10671871       9.12347829
H       -2.89817733       7.40063679       7.39141763
H       -1.23711408       7.24800648       7.98173182
H       -0.70951480       0.44489403       8.26307574
H       -2.02101745       0.80644440       9.41415575
