101
Properties=species:S:1:pos:R:3 pbc="F F F"
C        0.00000000       0.00000000       0.00000000
C        0.88176183       0.88176183      -0.88176183
C        0.61133995       2.24568252      -0.98594975
C        1.41366986       3.05021531      -1.79908373
C        2.48143508       2.48850448      -2.50440415
C        2.74962332       1.12159716      -2.39195234
C        1.94827092       0.31564218      -1.57921287
C        3.28495105       3.30779925      -3.35749752
C        3.93685701       3.98988033      -4.10002144
C        4.73620578       4.85059264      -5.08158606
C        5.33415411       5.51738282      -5.88346086
C        6.01664304       6.30073668      -6.86495291
C        5.67408964       7.64303753      -7.05062224
C        6.32231644       8.40263222      -8.02806910
C        7.31185087       7.81558749      -8.81568986
C        7.66177328       6.47827279      -8.63301228
C        7.01255911       5.72004370      -7.65517002
Br       8.18221386       8.83940584     -10.14518178
H       -0.21963799       2.69019668      -0.44467839
H        1.19653958       4.11274445      -1.88220015
H        3.57737568       0.67562384      -2.93873675
H        2.16131682      -0.74719699      -1.50119650
H        4.89917313       8.10317815      -6.44172628
H        6.04604591       9.44432203      -8.16842547
H        8.43166432       6.01701360      -9.24591433
H        7.28476306       4.67580948      -7.51920243
C       -0.88176183      -0.88176183      -0.88176183
C       -1.67653659      -0.29854373      -1.86789189
C       -2.48892135      -1.10518900      -2.66885856
C       -2.50390880      -2.48990113      -2.48053378
C       -1.70150751      -3.06833554      -1.49332977
C       -0.88850866      -2.26311191      -0.69150541
C       -3.35617213      -3.31153625      -3.28253945
C       -4.09779268      -3.99616442      -3.93280168
C       -5.07785675      -4.86110758      -4.72942015
C       -5.87812902      -5.53241617      -5.32445260
C       -6.85723779      -6.32248980      -6.00260504
C       -7.73166809      -5.72280000      -6.91328133
C       -8.70663323      -6.48939198      -7.55699255
C       -8.80206367      -7.85400710      -7.28705745
C       -7.93024320      -8.45975991      -6.38305523
C       -6.95586830      -7.69175444      -5.74015008
Br     -10.12724012      -8.88999312      -8.14956824
H       -1.67465320       0.77776929      -2.01835316
H       -3.11162308      -0.64633452      -3.43352657
H       -1.70829091      -4.14491791      -1.33852746
H       -0.27114472      -2.72098599       0.07681439
H       -7.66373880      -4.65766220      -7.12267656
H       -9.38520645      -6.01355665      -8.26003032
H       -8.00250223      -9.52286658      -6.16922344
H       -6.28100470      -8.16696033      -5.03180995
C       -0.88176183       0.88176183       0.88176183
C       -0.31990090       1.96224826       1.56082306
C       -1.12572676       2.76367111       2.37357104
C       -2.48823531       2.48162390       2.50448450
C       -3.04578513       1.39983293       1.81755476
C       -2.24135226       0.59741279       1.00436092
C       -3.30629148       3.28600873       3.35794762
C       -3.98442064       3.94068690       4.10165124
C       -4.83631745       4.74621962       5.08584741
C       -5.49303057       5.35123687       5.89073036
C       -6.26170155       6.04402562       6.87660545
C       -5.67233153       7.05651176       7.63890612
C       -6.41536783       7.71635403       8.62129589
C       -7.74624844       7.36049123       8.83638855
C       -8.34196584       6.35441921       8.07667330
C       -7.59754246       5.69552053       7.09470983
Br      -8.74932445       8.24540466      10.17207236
H        0.73952602       2.18626352       1.46849958
H       -0.68302346       3.60243989       2.90602083
H       -4.10481814       1.17184483       1.91507329
H       -2.68243934      -0.24452411       0.47740109
H       -4.63297446       7.33347147       7.47763162
H       -5.94732257       8.49914111       9.21232974
H       -9.37867279       6.07350839       8.24241107
H       -8.06431056       4.90777793       6.50768648
C        0.88176183      -0.88176183       0.88176183
C        1.03341071      -0.57587551       2.23368600
C        1.84660011      -1.37845867       3.03791013
C        2.50459170      -2.48190571       2.48784630
C        2.34466193      -2.78540350       1.13310738
C        1.53179739      -1.98384896       0.32747962
C        3.35810511      -3.28642273       3.30571999
C        4.10143577      -3.94012051       3.98520250
C        5.08464266      -4.74305280       4.84068901
C        5.88836031      -5.34500688       5.50163061
C        6.87255225      -6.03337123       6.27640915
C        7.10703138      -5.65840903       7.60230900
C        8.08746003      -6.31309623       8.35246151
C        8.82916478      -7.34150259       7.77246085
C        8.59761138      -7.72377352       6.45167344
C        7.61685562      -7.06804944       5.70286776
Br      10.16276079      -8.22092798       8.78311271
H        0.52918157       0.28285746       2.66891297
H        1.96687180      -1.13376310       4.09084928
H        2.85444850      -3.64111616       0.69617161
H        1.41672844      -2.22462142      -0.72603354
H        6.53409848      -4.85327046       8.05670863
H        8.26599453      -6.01157450       9.38122439
H        9.17465708      -8.52403968       5.99589550
H        7.44274737      -7.36570851       4.67131909
