146
Properties=species:S:1:pos:R:3 pbc="F F F"
C        1.79165696       1.79165696      -1.79165696
C        1.52114992       3.15558802      -1.89608469
C        2.32083766       3.95935164      -2.71258018
C        3.38565841       3.39661394      -3.42159304
C        3.65612068       2.03030725      -3.30611845
C        2.85736901       1.22521875      -2.49006313
C        4.18641875       4.21431265      -4.27887791
C        4.84149725       4.89429171      -5.02079368
C        5.65971471       5.75404469      -5.98707004
C        6.29463732       6.42519815      -6.75398301
C        7.09504896       7.27745453      -7.74072401
C        7.71563815       7.94439133      -8.52155098
C        8.50082497       8.79482480      -9.52591095
C        9.09636658       9.45685063     -10.32782721
C        9.78460083      10.24169681     -11.30804671
C        9.44644053      11.58543623     -11.48946554
C       10.09982492      12.34553874     -12.46234419
C       11.09062764      11.75778235     -13.24790943
C       11.43856885      10.41978014     -13.06602585
C       10.78436023       9.66065999     -12.09280586
H        0.69142377       3.60051140      -1.35313229
H        2.10368850       5.02187827      -2.79553773
H        4.48343593       1.58404257      -3.85336456
H        3.07123079       0.16257361      -2.41106600
H        8.67060369      12.04527115     -10.88156294
H        9.82623533      13.38796961     -12.60114853
H       12.21036203       9.95861938     -13.67633126
H       11.05464801       8.61594567     -11.95663935
C       11.75634543      12.53768442     -14.25893495
C       12.31388408      13.19085240     -15.10566882
Br      13.21537692      14.24696978     -16.47476587
C       -1.79165696      -1.79165696      -1.79165696
C       -2.56733784      -1.21103784      -2.79444695
C       -3.38306347      -2.01703168      -3.59267433
C       -3.42094677      -3.39848612      -3.38443250
C       -2.63487334      -3.97483413      -2.38283890
C       -1.81865583      -3.17021550      -1.58377956
C       -4.27708372      -4.21951023      -4.18301536
C       -5.01673580      -4.90604698      -4.83379986
C       -5.97874204      -5.77817003      -5.64391737
C       -6.74149289      -6.46138070      -6.27094489
C       -7.72266962      -7.32975620      -7.06080167
C       -8.49949764      -8.00827754      -7.67380528
C       -9.49921405      -8.87216291      -8.45018374
C      -10.29900921      -9.54033338      -9.04170185
C      -11.27736413     -10.33058102      -9.72639919
C      -12.12893483      -9.73296059     -10.65944689
C      -13.10022104     -10.49767622     -11.30981059
C      -13.21332889     -11.85795858     -11.02503196
C      -12.36106735     -12.46197119     -10.10133630
C      -11.39017121     -11.69611909      -9.45153578
H       -2.54874205      -0.13695496      -2.95937045
H       -3.99056663      -1.56000453      -4.37053334
H       -2.65720764      -5.04918407      -2.21445134
H       -1.21541056      -3.62626241      -0.80319744
H      -12.04630106      -8.67114663     -10.87999009
H      -13.76249318     -10.02367561     -12.02918468
H      -12.44632360     -13.52182294      -9.87716612
H      -10.73007663     -12.16916963      -8.72798679
C      -14.22211767     -12.64434022     -11.68650691
C      -15.06697828     -13.30293485     -12.24049217
Br     -16.43304642     -14.36782666     -13.13623949
C       -1.79165696       1.79165696       1.79165696
C       -1.62186995       3.17559834       1.77535434
C       -2.42065719       3.98065418       2.59145811
C       -3.38390859       3.39936390       3.42059290
C       -3.55426667       2.01219909       3.42608062
C       -2.75627452       1.20579246       2.61058391
C       -4.18189345       4.22138991       4.27632596
C       -4.83262025       4.90802332       5.01593906
C       -5.64334599       5.77912733       5.97835612
C       -6.27152757       6.46040445       6.74188645
C       -7.06247760       7.32694832       7.72380158
C       -7.67506805       8.00616187       8.50035054
C       -8.44945916       8.87337690       9.49872465
C       -9.03523056       9.55117551      10.29463836
C       -9.70984101      10.35832295      11.26618038
C       -9.46562059      11.73312262      11.32259910
C      -10.10417623      12.51762173      12.28590989
C      -10.98631983      11.92281772      13.18718188
C      -11.24074806      10.55297645      13.13065034
C      -10.60147455       9.76948717      12.16686436
H       -0.87110060       3.63568679       1.13828008
H       -2.28189083       5.05936071       2.57985296
H       -4.30222237       1.55128799       4.06733269
H       -2.89147564       0.12751660       2.62587816
H       -8.77431241      12.19904390      10.62408147
H       -9.90366690      13.58481341      12.32687317
H      -11.92775755      10.08621835      13.83133676
H      -10.79833081       8.70047112      12.12843111
C      -11.63592029      12.72909412      14.18795039
C      -12.17996068      13.40435060      15.02609401
Br     -13.05962797      14.49618323      16.38130137
C        1.79165696      -1.79165696       1.79165696
C        2.60165720      -1.20677838       2.76438704
C        3.41720668      -2.01315493       3.56240786
C        3.42062569      -3.39928576       3.38395393
C        2.60035656      -3.97963992       2.41254989
C        1.78426736      -3.17464503       1.61373850
C        4.27625032      -4.22157015       4.18178886
C        5.01508751      -4.91005231       4.83144282
C        5.97568156      -5.78549995       5.63964792
C        6.73715374      -6.47168102       6.26498372
C        7.71654268      -7.34424400       7.05244082
C        8.49187692      -8.02635184       7.66335169
C        9.48959606      -8.89512747       8.43683718
C       10.28763565      -9.56786077       9.02554801
C       11.26356989     -10.36454294       9.70623152
C       12.14825091      -9.76585391      10.60723748
C       13.11691326     -10.53760196      11.25319263
C       13.19428817     -11.90588566      10.99614559
C       12.30898505     -12.51074651      10.10464328
C       11.34074958     -11.73785898       9.45921752
H        2.60991885      -0.12923425       2.90591436
H        4.05147197      -1.55295526       4.31667728
H        2.59574938      -5.05760839       2.26748528
H        1.15421897      -3.63401780       0.85663363
H       12.09346833      -8.69795696      10.80601249
H       13.80499657     -10.06291002      11.94744688
H       12.36635116     -13.57681847       9.90214304
H       10.65477112     -12.21173959       8.76072233
C       14.20021245     -12.69987750      11.65287486
C       15.04267402     -13.36484566      12.20288562
Br      16.40486314     -14.44004293      13.09220650
C       -0.00445707       0.01189536      -1.78238275
H       -0.66409135       0.67374010      -2.43557963
H        0.65740317      -0.63156657      -2.45157240
C       -0.90989263      -0.90692880      -0.91072765
C        0.90977584       0.90977584      -0.90977584
C       -0.00465871       1.77757030       0.00794375
H       -0.66225468       2.44313916      -0.64384735
H        0.64322798       2.43503045       0.67728295
C       -1.78241447       0.00034974      -0.00472694
H       -2.45427497      -0.65498947       0.64260836
H       -2.43311707       0.67328779      -0.65473579
C       -0.91132561       0.90220522       0.91563759
C       -0.01476271      -0.02253852       1.78660255
H       -0.67934791      -0.69751639       2.42135241
H        0.63392994       0.61504881       2.47327442
C        0.01484550      -1.77751727      -0.01636693
H        0.67870853      -2.42144646      -0.68295456
H       -0.62264859      -2.45592969       0.64226336
C        1.78714474       0.01002794       0.00389507
H        2.44202412       0.67113390       0.66197326
H        2.45385902      -0.65136977      -0.64189061
C        0.91606151      -0.90478549       0.90901405
