101
Properties=species:S:1:pos:R:3 pbc="F F F"
C        0.00000000       0.00000000       0.00000000
C        0.88717419       0.88717419      -0.88717419
C        1.58031844       1.58038458      -1.58045682
C        2.40563255       2.40590222      -2.40625515
C        1.97662622       3.68108576      -2.77312180
C        2.78555781       4.48768178      -3.58112883
C        4.03514663       4.03592068      -4.03772132
C        4.44915059       2.74827577      -3.65740572
C        3.64316780       1.93945547      -2.84865064
C        4.88450778       4.88571062      -4.88882886
C        5.22607920       6.19111611      -4.49741174
C        6.03311646       6.99992455      -5.30510778
C        6.51255725       6.51553344      -6.52168907
C        6.18456311       5.22264385      -6.92821461
C        5.37810991       4.41610098      -6.11764974
C        7.33683151       7.34124760      -7.34902350
C        8.02816229       8.03403021      -8.04330328
Br       9.12269870       9.13101706      -9.14280283
H        1.01271124       4.05724363      -2.43840029
H        2.42448693       5.47465925      -3.86446092
H        5.41615305       2.36742592      -3.98089824
H        3.99247747       0.94855077      -2.56816564
H        4.87323628       6.58645347      -3.54662386
H        6.28318805       8.00495266      -4.97345036
H        6.54845026       4.83230028      -7.87581105
H        5.12536041       3.41465873      -6.46126681
C       -0.88717419      -0.88717419      -0.88717419
C       -1.58046351      -1.58036700      -1.58032933
C       -2.40627136      -2.40585964      -2.40565891
C       -3.47143379      -1.84765117      -3.11174882
C       -4.27845226      -2.65684266      -3.91907349
C       -4.03761836      -4.03619102      -4.03497926
C       -2.95997855      -4.57938726      -3.31546627
C       -2.15033550      -3.77289833      -2.50804007
C       -4.88860809      -4.88629027      -4.88414891
C       -5.11671455      -4.56512198      -6.23277052
C       -5.92516830      -5.37194103      -7.04103946
C       -6.52143892      -6.51619022      -6.51215063
C       -6.30762122      -6.85202643      -5.17577392
C       -5.49779218      -6.04355163      -4.37051682
C       -7.34891008      -7.34154537      -7.33664715
C       -8.04335366      -8.03389795      -8.02824418
Br      -9.14313236      -9.13015187      -9.12323436
H       -3.68517116      -0.78381731      -3.03936669
H       -5.11133104      -2.20097236      -4.45130371
H       -2.73385257      -5.64157374      -3.38905091
H       -1.32143521      -4.22187091      -1.96588776
H       -4.65233189      -3.68339098      -6.67059074
H       -6.08021512      -5.09911569      -8.08226026
H       -6.76849925      -7.73957353      -4.74848881
H       -5.35504824      -6.31906165      -3.32717605
C       -0.88717419       0.88717419       0.88717419
C       -1.58032172       1.58037865       1.58045946
C       -2.40564850       2.40587560       2.40626581
C       -1.93999933       3.64453173       2.84630271
C       -2.74898842       4.45117084       3.65420916
C       -4.03522692       4.03581123       4.03775048
C       -4.48583514       2.78462388       3.58437305
C       -3.67984998       1.97592511       2.77549881
C       -4.88464656       4.88552712       4.88887359
C       -5.15367956       6.21991047       4.54101702
C       -5.96067136       7.02868802       5.34878941
C       -6.51283232       6.51514484       6.52180260
C       -6.25748818       5.19321510       6.88471828
C       -5.45085867       4.38684489       6.07415706
C       -7.33718019       7.34072796       7.34919446
C       -8.02857921       8.03338418       8.04353240
Br      -9.12323017       9.13015829       9.14313013
H       -0.94741806       3.99182539       2.56911171
H       -2.35958275       5.40863131       3.99539305
H       -5.48120328       2.43325321       3.85002072
H       -4.05780556       1.01391012       2.43747821
H       -4.74326009       6.63895700       3.62409651
H       -6.15359230       8.05673250       5.05126629
H       -6.67858226       4.77977075       7.79820858
H       -5.25563809       3.36176064       6.38388722
C        0.88717419      -0.88717419       0.88717419
C        1.58046351      -1.58036701       1.58032932
C        2.40627134      -2.40585970       2.40565887
C        3.47155396      -1.84768538       3.11159444
C        4.27857226      -2.65687684       3.91891932
C        4.03761824      -4.03619127       4.03497912
C        2.95985839      -4.57935345       3.31562024
C        2.15021526      -3.77286431       2.50819434
C        4.88860789      -4.88629069       4.88414869
C        5.11687310      -4.56501588       6.23271807
C        5.92532699      -5.37183495       7.04098685
C        6.52143853      -6.51619111       6.51215013
C        6.30746185      -6.85213403       5.17582569
C        5.49763311      -6.04365879       4.37056872
C        7.34890962      -7.34154654       7.33664645
C        8.04335312      -8.03389938       8.02824328
Br       9.14313171      -9.13015376       9.12323313
H        3.68538559      -0.78387873       3.03909084
H        5.11154497      -2.20103513       4.45102701
H        2.73363843      -5.64151142       3.38932736
H        1.32122074      -4.22180961       1.96616352
H        4.65261589      -3.68319912       6.67049860
H        6.08049875      -5.09892537       8.08216697
H        6.76821487      -7.73976556       4.74858116
H        5.35476379      -6.31925443       3.32726773
