146
Properties=species:S:1:pos:R:3 pbc="F F F"
C        1.79712795       1.79712795      -1.79712795
C        2.47763349       2.48639018      -2.50643070
C        3.26423029       3.29951433      -3.38062861
C        2.94006953       4.64608343      -3.56270733
C        3.67628053       5.42813384      -4.45702303
C        4.73748731       4.86440463      -5.16935990
C        5.07421213       3.52308104      -4.97251395
C        4.33800503       2.74090612      -4.07814367
C        5.45140463       5.64872611      -6.12805127
C        6.01514277       6.29448695      -6.96862789
C        6.69055957       7.10096771      -8.08062498
C        7.17946625       7.71575874      -8.98861011
C        7.71760296       8.42695004     -10.10604086
C        7.26580508       9.71625335     -10.39744398
C        7.74946612      10.38960608     -11.52274982
C        8.68466305       9.77369523     -12.35807281
C        9.15125981       8.49209808     -12.05555571
C        8.66751862       7.81886297     -10.93019751
C        9.13875255      10.44079095     -13.53833852
C        9.49560850      10.98811585     -14.54571937
H        2.10690273       5.09129338      -3.02381171
H        3.40602056       6.47130149      -4.60416053
H        5.89813767       3.07488572      -5.52304687
H        4.59966478       1.69397856      -3.94287876
H        6.52576854      10.19784752      -9.76241651
H        7.38061236      11.38759054     -11.74810916
H        9.88038210       8.00400309     -12.69813188
H        9.02483958       6.81508312     -10.71216243
C        9.90997886      11.63720066     -15.76251274
C       10.25701404      12.18080920     -16.78157718
Br      10.81814057      13.05977822     -18.42931821
C       -1.79712795      -1.79712795      -1.79712795
C       -2.50583591      -2.48809098      -2.47652748
C       -3.37817447      -3.30653197      -3.25966680
C       -4.23637229      -2.71973594      -4.19275207
C       -5.12640974      -3.51401999      -4.92100768
C       -5.15844504      -4.89561573      -4.71719108
C       -4.28649370      -5.48475856      -3.79855486
C       -3.39635279      -4.69048974      -3.07021229
C       -6.11025793      -5.69960623      -5.41831785
C       -6.94413952      -6.36451155      -5.96960655
C       -8.04635350      -7.19896713      -6.62683163
C       -8.94498146      -7.84051502      -7.09833861
C      -10.04904506      -8.58992976      -7.61161905
C      -11.01091063      -7.96204312      -8.40654866
C      -12.12051018      -8.68030803      -8.86100380
C      -12.26953471     -10.02687028      -8.52002610
C      -11.29744655     -10.65991413      -7.74155292
C      -10.18787975      -9.94152343      -7.28717592
C      -13.43126640     -10.74696407      -8.93965154
C      -14.42188710     -11.34221469      -9.26534193
H       -4.22955116      -1.64347683      -4.34897984
H       -5.80199704      -3.04608344      -5.63340210
H       -4.30447884      -6.55938564      -3.63220577
H       -2.73158828      -5.15766832      -2.34726551
H      -10.91223113      -6.90994824      -8.66385321
H      -12.87050630      -8.17809164      -9.46771412
H      -11.40274986     -11.70815291      -7.47161430
H       -9.44481993     -10.43905384      -6.66821136
C      -15.61790308     -12.05071253      -9.64107666
C      -16.61956646     -12.64407947      -9.95575449
Br     -18.23917144     -13.60350362     -10.46456193
C       -1.79712795       1.79712795       1.79712795
C       -2.47483131       2.49133852       2.50428455
C       -3.25288392       3.31951864       3.37197068
C       -3.15313006       4.71022159       3.28550865
C       -3.87355263       5.51950296       4.16838181
C       -4.69466771       4.93873952       5.13784462
C       -4.80982422       3.54855760       5.21142531
C       -4.08939128       2.73914479       4.32851874
C       -5.38404008       5.76523527       6.07890666
C       -5.92045028       6.45862735       6.89917999
C       -6.55307926       7.34017522       7.97889779
C       -7.00092686       8.02702193       8.85588630
C       -7.48213496       8.83784315       9.93061576
C       -7.23138197      10.21204592       9.93607453
C       -7.65162814      10.99580816      11.01438572
C       -8.32216376      10.40570235      12.08856499
C       -8.59037912       9.03473079      12.07380369
C       -8.17008426       8.25108559      10.99540925
C       -8.70418166      11.19780045      13.21589991
C       -8.99641168      11.85711509      14.17591694
H       -2.50583524       5.17240642       2.54376617
H       -3.77675238       6.60087027       4.10385993
H       -5.44582938       3.08697766       5.96326321
H       -4.17534925       1.65757462       4.40359824
H       -6.69577928      10.67807057       9.11218273
H       -7.43896443      12.06238525      11.01496237
H       -9.11305433       8.56541180      12.90405094
H       -8.36938084       7.18195328      11.00075101
C       -9.33102456      12.64434582      15.33432188
C       -9.61126285      13.30365156      16.30448601
Br     -10.06438446      14.36969317      17.87315936
C        1.79712795      -1.79712795       1.79712795
C        2.50501266      -2.48995196       2.47548976
C        3.37483903      -3.31405634       3.25547787
C        4.32617040      -2.72845234       4.09423756
C        5.21152923      -3.53300017       4.81690800
C        5.14578601      -4.92361644       4.70184940
C        4.18155288      -5.50978036       3.87847389
C        3.29608440      -4.70524628       3.15572413
C        6.09031561      -5.74350878       5.39435761
C        6.91612979      -6.42634923       5.93577859
C        8.00574279      -7.28905332       6.57735615
C        8.89228020      -7.95771573       7.03383916
C        9.97956316      -8.74463086       7.52639984
C       11.02766854      -8.13328454       8.21854933
C       12.11854020      -8.89312744       8.65015437
C       12.16253405     -10.26484042       8.38905663
C       11.10500271     -10.87965300       7.71425789
C       10.01417644     -10.11968218       7.28272048
C       13.30295173     -11.03202457       8.78290572
C       14.27445424     -11.66946700       9.08552248
H        4.39528050      -1.64650172       4.18022561
H        5.95935831      -3.06737861       5.45474566
H        4.12300332      -6.59145013       3.78161680
H        2.55839458      -5.17146168       2.50666585
H       11.01038801      -7.06325063       8.41239394
H       12.93569805      -8.40465988       9.17595413
H       11.12829405     -11.94704890       7.50717412
H        9.20341603     -10.60468231       6.74398679
C       15.44687168     -12.43001323       9.43280736
C       16.42877128     -13.06697070       9.72365844
Br      18.01641989     -14.09687706      10.19394005
C       -0.00445707       0.01189536      -1.78238275
H       -0.66409135       0.67374010      -2.43557963
H        0.65740317      -0.63156657      -2.45157240
C       -0.90989263      -0.90692880      -0.91072765
C        0.90977584       0.90977584      -0.90977584
C       -0.00465871       1.77757030       0.00794375
H       -0.66225468       2.44313916      -0.64384735
H        0.64322798       2.43503045       0.67728295
C       -1.78241447       0.00034974      -0.00472694
H       -2.45427497      -0.65498947       0.64260836
H       -2.43311707       0.67328779      -0.65473579
C       -0.91132561       0.90220522       0.91563759
C       -0.01476271      -0.02253852       1.78660255
H       -0.67934791      -0.69751639       2.42135241
H        0.63392994       0.61504881       2.47327442
C        0.01484550      -1.77751727      -0.01636693
H        0.67870853      -2.42144646      -0.68295456
H       -0.62264859      -2.45592969       0.64226336
C        1.78714474       0.01002794       0.00389507
H        2.44202412       0.67113390       0.66197326
H        2.45385902      -0.65136977      -0.64189061
C        0.91606151      -0.90478549       0.90901405
