125
Properties=species:S:1:pos:R:3 pbc="F F F"
C        0.00000000       0.00000000       0.00000000
C        0.88722393       0.88722393      -0.88722393
C        1.56772947       1.57648615      -1.59652668
C        2.35432627       2.38961031      -2.47072459
C        2.03016550       3.73617941      -2.65280331
C        2.76637651       4.51822982      -3.54711900
C        3.82758329       3.95450061      -4.25945588
C        4.16430811       2.61317702      -4.06260992
C        3.42810100       1.83100209      -3.16823964
C        4.54150060       4.73882209      -5.21814725
C        5.10523875       5.38458293      -6.05872386
C        5.78065555       6.19106368      -7.17072096
C        6.26956222       6.80585471      -8.07870608
C        6.80769894       7.51704602      -9.19613684
C        6.35590106       8.80634933      -9.48753996
C        6.83956209       9.47970206     -10.61284579
C        7.77475902       8.86379121     -11.44816879
C        8.24135578       7.58219406     -11.14565169
C        7.75761460       6.90895894     -10.02029349
C        8.22884853       9.53088692     -12.62843450
C        8.58570448      10.07821182     -13.63581534
H        1.19699871       4.18138936      -2.11390769
H        2.49611654       5.56139746      -3.69425651
H        4.98823365       2.16498169      -4.61314284
H        3.68976076       0.78407454      -3.03297474
H        5.61586452       9.28794350      -8.85251249
H        6.47070834      10.47768651     -10.83820514
H        8.97047808       7.09409906     -11.78822786
H        8.11493556       5.90517909      -9.80225841
C        9.00007484      10.72729664     -14.85260871
C        9.34711002      11.27090517     -15.87167316
Br       9.90823655      12.14987419     -17.51941418
C       -0.88722393      -0.88722393      -0.88722393
C       -1.59590467      -1.57825563      -1.56658200
C       -2.46816014      -2.39690561      -2.34959541
C       -3.32991445      -1.80994229      -3.27929148
C       -4.21979653      -2.60460539      -4.00732341
C       -4.24812113      -3.98674556      -3.80667309
C       -3.37264177      -4.57598960      -2.89146368
C       -2.48265600      -3.78134169      -2.16334505
C       -5.19969198      -4.79132339      -4.50745456
C       -6.03330618      -5.45689082      -5.05834854
C       -7.13510306      -6.29238902      -5.71494810
C       -8.03333083      -6.93493767      -6.18585453
C       -9.13683870      -7.68573661      -6.69830649
C      -10.10203233      -7.05824927      -7.48950874
C      -11.21101105      -7.77804918      -7.94304971
C      -11.35608453      -9.12575132      -7.60488317
C      -10.38069490      -9.75833335      -6.83017327
C       -9.27174942      -9.03840755      -6.37671006
C      -12.51710915      -9.84758385      -8.02347695
C      -13.50709550     -10.44439238      -8.34824377
H       -3.32597788      -0.73330757      -3.43301031
H       -4.89814566      -2.13658900      -4.71703585
H       -3.38772238      -5.65104217      -2.72759363
H       -1.81510662      -4.24865019      -1.44305322
H      -10.00641839      -6.00532672      -7.74457539
H      -11.96360094      -7.27617490      -8.54682414
H      -10.48291201     -10.80744492      -6.56244808
H       -8.52607799      -9.53564082      -5.76065425
C      -14.70232841     -11.15481211      -8.72283967
C      -15.70333598     -11.74978863      -9.03656374
Br     -17.32188055     -12.71181535      -9.54382902
C       -0.88722393       0.88722393       0.88722393
C       -1.56481115       1.58170290       1.59422825
C       -2.34250936       2.41069985       2.46145196
C       -2.25628672       3.80140063       2.36146088
C       -2.97604873       4.61216258       3.24351403
C       -3.78297683       4.03287449       4.22568846
C       -3.88472253       2.64243691       4.31293561
C       -3.16494925       1.83154332       3.43085017
C       -4.47132076       4.86166419       5.16548499
C       -5.00659238       5.55764326       5.98430990
C       -5.63744339       6.44326555       7.06173124
C       -6.08358507       7.13402312       7.93651483
C       -6.56242525       7.95025329       9.00820326
C       -6.32423058       9.32666773       8.99889202
C       -6.74183354      10.11642730      10.07384910
C       -7.39715869       9.53012348      11.15943685
C       -7.65292830       8.15669628      11.15957694
C       -7.23527848       7.36705342      10.08453512
C       -7.77616795      10.32901423      12.28298777
C       -8.06569920      10.99441496      13.23961748
H       -1.62001143       4.26262812       1.60965621
H       -2.88974694       5.69372759       3.16829597
H       -4.50962301       2.18200920       5.07472597
H       -3.24031197       0.74997058       3.51652749
H       -5.80041893       9.78996852       8.16593306
H       -6.53895160      11.18485122      10.06279716
H       -8.16372569       7.69027698      11.99880233
H       -7.42471728       6.29625005      10.10140574
C       -8.39698080      11.78915359      14.39384580
C       -8.67442914      12.45474719      15.36051202
Br      -9.12303964      13.53095575      16.92352954
C        0.88722393      -0.88722393       0.88722393
C        1.59500340      -1.58026041       1.56547849
C        2.46450879      -2.40501134       2.34514104
C        3.42604779      -1.82029415       3.17280629
C        4.31081109      -2.62601272       3.89490152
C        4.23426880      -4.01690719       3.79036378
C        3.25993580      -4.60198079       2.97817847
C        2.37506219      -3.79627574       2.25600481
C        5.17787194      -4.83861312       4.48198488
C        6.00265734      -5.52350023       5.02238798
C        7.09066153      -6.38942873       5.66234993
C        7.97565523      -7.06118615       6.11728165
C        9.06079671      -7.85238132       6.60770377
C       10.11823043      -7.24367334       7.28788658
C       11.20671430      -8.00826068       7.71713496
C       11.23898420      -9.38209257       7.46564225
C       10.17222546      -9.99407414       6.80290192
C        9.08378839      -9.22935872       6.37371992
C       12.37668619     -10.15464936       7.85683439
C       13.34575319     -10.79690536       8.15707310
H        3.50353352      -0.73828212       3.25048011
H        5.06654687      -2.16124272       4.52398092
H        3.19293357      -5.68386619       2.88955841
H        1.62937984      -4.26179325       1.61563695
H       10.11002352      -6.17218007       7.47411691
H       12.03112991      -7.52194993       8.23352014
H       10.18636616     -11.06306788       6.60337096
H        8.26570134      -9.71234116       5.84433056
C       14.51516458     -11.56338958       8.50142604
C       15.49454662     -12.20532011       8.78982163
Br      17.07812454     -13.24326748       9.25613290
