74
Properties=species:S:1:pos:R:3 pbc="F F F"
C        1.77206678       1.77206678      -1.77206678
C        2.08598787       1.48461435      -3.03869616
C        2.90336662       2.33532564      -3.80356103
C        3.59526669       3.05544125      -4.45100882
C        4.39055412       3.88316034      -5.19520167
C        5.08245418       4.60327595      -5.84264945
C        5.89983294       5.45398725      -6.60751433
C        6.72221545       4.97402894      -7.54505014
Br       7.82973342       6.03182608      -8.59349652
H        2.12315181       2.66398179      -1.26647252
H        1.71263337       0.57928146      -3.50819664
H        5.84519858       6.52143737      -6.41516650
H        6.80682685       3.91663575      -7.76823948
C       -1.77206678      -1.77206678      -1.77206678
C       -2.45681836      -2.82843610      -1.32404392
C       -3.25386256      -3.60483061      -2.18356012
C       -3.92854971      -4.26203808      -2.91112896
C       -4.70405218      -5.01744897      -3.74741499
C       -5.37873932      -5.67465643      -4.47498383
C       -6.17578353      -6.45105095      -5.33450003
C       -6.33728829      -7.76330299      -5.14070326
Br      -7.37187913      -8.85309889      -6.23007801
H       -1.78974102      -1.45551570      -2.80834940
H       -2.41156563      -3.11190360      -0.27664223
H       -6.66162359      -5.95225533      -6.16792353
H       -5.87064273      -8.29905380      -4.32200555
C       -1.77206678       1.77206678       1.77206678
C       -2.40995871       2.86254980       1.33678986
C       -3.20959192       3.63706312       2.19559825
C       -3.88647063       4.29267817       2.92256795
C       -4.66449213       5.04625869       3.75816531
C       -5.34137084       5.70187374       4.48513501
C       -6.14100405       6.47638705       5.34394340
C       -6.25634195       7.79835046       5.18660212
Br      -7.29097235       8.88642659       6.27765709
H       -1.83187980       1.42484018       2.79688614
H       -2.32325129       3.17619725       0.30066292
H       -6.66771417       5.96795612       6.14613216
H       -5.74814565       8.34385559       4.39970084
C        1.77206678      -1.77206678       1.77206678
C        1.86089282      -1.64877195       3.09963360
C        2.69070817      -2.49043070       3.86111442
C        3.39313564      -3.20288346       4.50569765
C        4.20052354      -4.02179468       5.24659791
C        4.90295101      -4.73424743       5.89118114
C        5.73276636      -5.57590618       6.65266196
C        6.33319794      -5.14293215       7.76516445
Br       7.44089291      -6.19247145       8.82169167
H        2.32556968      -2.51636898       1.21166745
H        1.28840655      -0.88866709       3.62303783
H        5.87461015      -6.59677800       6.31041431
H        6.21805856      -4.13269388       8.14094964
C       -0.00445707       0.01189536      -1.78238275
H       -0.66409135       0.67374010      -2.43557963
H        0.65740317      -0.63156657      -2.45157240
C       -0.90989263      -0.90692880      -0.91072765
C        0.90977584       0.90977584      -0.90977584
C       -0.00465871       1.77757030       0.00794375
H       -0.66225468       2.44313916      -0.64384735
H        0.64322798       2.43503045       0.67728295
C       -1.78241447       0.00034974      -0.00472694
H       -2.45427497      -0.65498947       0.64260836
H       -2.43311707       0.67328779      -0.65473579
C       -0.91132561       0.90220522       0.91563759
C       -0.01476271      -0.02253852       1.78660255
H       -0.67934791      -0.69751639       2.42135241
H        0.63392994       0.61504881       2.47327442
C        0.01484550      -1.77751727      -0.01636693
H        0.67870853      -2.42144646      -0.68295456
H       -0.62264859      -2.45592969       0.64226336
C        1.78714474       0.01002794       0.00389507
H        2.44202412       0.67113390       0.66197326
H        2.45385902      -0.65136977      -0.64189061
C        0.91606151      -0.90478549       0.90901405
