61
Properties=species:S:1:pos:R:3 pbc="F F F"
C        0.00000000       0.00000000       0.00000000
C        0.86216276       0.86216276      -0.86216276
C        1.17608385       0.57471032      -2.12879213
C        1.99346260       1.42542161      -2.89365701
C        2.68536266       2.14553722      -3.54110479
C        3.48065009       2.97325632      -4.28529764
C        4.17255016       3.69337193      -4.93274543
C        4.98992891       4.54408322      -5.69761030
C        5.81231142       4.06412492      -6.63514612
H        1.21324779       1.75407776      -0.35656849
H        0.80272934      -0.33062257      -2.59829262
H        4.93529456       5.61153335      -5.50526247
H        5.89692283       3.00673173      -6.85833546
C        6.67158829       4.88482547      -7.44859180
C        7.39123266       5.57216218      -8.12985256
Br       8.55483675       6.68352750      -9.23139359
C       -0.86216276      -0.86216276      -0.86216276
C       -1.57399262      -1.89774222      -0.40785146
C       -2.36954064      -2.67528334      -1.26771724
C       -3.04296128      -3.33346139      -1.99558200
C       -3.81700800      -4.08998789      -2.83220817
C       -4.49042865      -4.74816594      -3.56007293
C       -5.28597667      -5.52570706      -4.41993871
C       -5.47484421      -6.83110000      -4.20563825
H       -0.85548667      -0.56430625      -1.90410113
H       -1.55269484      -2.16281726       0.64511272
H       -5.74762307      -5.03357538      -5.27089193
H       -5.03279645      -7.36009953      -3.36909404
C       -6.27755983      -7.67738857      -5.05005716
C       -6.94983416      -8.38615524      -5.75725800
Br      -8.03684489      -9.53217101      -6.90074194
C       -0.86216276       0.86216276       0.86216276
C       -1.52341012       1.93593360       0.42024259
C       -2.32175296       2.71136847       1.27941979
C       -2.99753939       3.36776361       2.00670168
C       -3.77430540       4.12224078       2.84265787
C       -4.45009183       4.77863592       3.56993976
C       -5.24843468       5.55407079       4.42911696
C       -5.38659797       6.87153040       4.25345409
H       -0.90097329       0.52996396       1.89295679
H       -1.45736424       2.23479599      -0.62176084
H       -5.75493017       5.05014653       5.24701368
H       -4.89895265       7.41247455       3.45056280
C       -6.18929898       7.71639075       5.09931583
C       -6.86156107       8.42396129       5.80772504
Br      -7.94855202       9.56804300       6.95316282
C        0.86216276      -0.86216276       0.86216276
C        0.91116012      -0.77385003       2.19457615
C        1.74317658      -1.61357890       2.95578574
C        2.44746727      -2.32439804       3.60013937
C        3.25699680      -3.14143154       4.34077572
C        3.96128748      -3.85225068       4.98512935
C        4.79330394      -4.69197955       5.74633894
C        5.35068852      -4.27419373       6.88670020
H        1.45148203      -1.57500826       0.29740376
H        0.30343931      -0.04469314       2.72226694
H        4.97309049      -5.69856833       5.38043156
H        5.19696785      -3.27844293       7.28657923
C        6.20991979      -5.08740620       7.70767957
C        6.92952597      -5.76847164       8.39524979
Br       8.09306831      -6.86969686       9.50699268
