126
Properties=species:S:1:pos:R:3 pbc="F F F"
C        1.79146482       1.79146482      -1.79146482
C        1.22946808       2.86145694      -2.48249582
C        2.03777867       3.66634035      -3.29022251
C        3.40939802       3.39163689      -3.42452970
C        3.96784872       2.33186203      -2.69639240
C        3.15589982       1.52738437      -1.88939905
N        4.20975185       4.24417842      -4.24681507
N        3.77625985       5.52201954      -4.45945778
C        4.85887225       6.17534062      -4.87834961
C        5.94773672       5.31959160      -5.07847911
Br       7.55245690       5.92586586      -5.83034143
C        5.47686048       4.05764142      -4.79162467
N        6.07093025       2.82471790      -5.05781808
C        7.42274157       2.53942349      -5.08515174
C        7.61010581       1.21244882      -5.40405253
C        6.33592322       0.65129593      -5.60913059
C        5.41547225       1.65473427      -5.40438946
H        0.16833138       3.08175108      -2.39954436
H        1.58015300       4.50034140      -3.82089241
H        5.03423488       2.12387447      -2.70363574
H        3.60135921       0.70578462      -1.33361643
H        4.78888589       7.24083558      -5.05794964
H        8.15639741       3.28948792      -4.82915126
H        8.56615134       0.71033470      -5.48094952
H        6.10779010      -0.36881578      -5.89102627
H        4.33883820       1.63170282      -5.51051110
C       -1.79146482      -1.79146482      -1.79146482
C       -1.45868149      -3.12933212      -1.98540724
C       -2.26602047      -3.93431697      -2.79400409
C       -3.40001501      -3.39805102      -3.42749858
C       -3.74175146      -2.05834980      -3.19600189
C       -2.93103885      -1.25484526      -2.38679912
N       -4.21204159      -4.25327670      -4.23542704
N       -4.17881066      -5.59544926      -3.98347725
C       -5.28113055      -6.06995528      -4.56147664
C       -5.95217181      -5.09099489      -5.30264072
Br      -7.43731417      -5.50541061      -6.36593941
C       -5.18069260      -3.95584401      -5.18958995
N       -5.26078847      -2.77161186      -5.92106590
C       -6.39883526      -2.19570569      -6.45277585
C       -6.06361373      -1.03987839      -7.12311503
C       -4.66646205      -0.89793978      -7.03194793
C       -4.19854336      -1.97023702      -6.30581559
H       -0.57888389      -3.55811651      -1.51262643
H       -1.99061951      -4.97922186      -2.93154544
H       -4.64847188      -1.61501919      -3.59825401
H       -3.20534059      -0.21605867      -2.21936100
H       -5.51961137      -7.12004443      -4.44801531
H       -7.37477946      -2.62343883      -6.27681829
H       -6.75729443      -0.37638634      -7.62375479
H       -4.05937219      -0.11042605      -7.46020234
H       -3.18038208      -2.24136778      -6.05930226
C       -1.79146482       1.79146482       1.79146482
C       -3.16550057       1.57175024       1.83617003
C       -3.97102822       2.38078608       2.64252723
C       -3.40635125       3.42596295       3.39325040
C       -2.01745122       3.61389555       3.36475639
C       -1.21387630       2.80296292       2.55584402
N       -4.25725230       4.22446998       4.21902306
N       -5.43553847       3.67890235       4.64329635
C       -5.79956103       4.43583216       5.67716928
C       -4.96013047       5.54306740       5.84260955
Br      -5.32635087       6.87754298       7.10477034
C       -4.04660958       5.46444121       4.81507577
N       -3.14671458       6.43342334       4.37332830
C       -2.51412162       7.39425758       5.13893760
C       -1.71585108       8.17681924       4.33393684
C       -1.87130573       7.70936944       3.01567458
C       -2.75613416       6.65539140       3.06307042
H       -3.62096571       0.77536116       1.25329996
H       -5.04352943       2.19165592       2.66620145
H       -1.52149343       4.35609445       3.98415721
H       -0.13842510       2.96264484       2.53969032
H       -6.68677776       4.16514612       6.23574724
H       -2.63933670       7.42447891       6.21122098
H       -1.09269635       8.99660131       4.66813790
H       -1.40413127       8.10371459       2.12215472
H       -3.16358003       6.06337433       2.25409776
C        1.79146482      -1.79146482       1.79146482
C        2.74265902      -1.20729670       2.62346512
C        3.54978099      -2.01602507       3.42853547
C        3.42087795      -3.41485531       3.38983135
C        2.43602986      -3.98728968       2.57278361
C        1.63024980      -3.17509771       1.76733573
N        4.25200003      -4.21121160       4.23753370
N        4.75649792      -3.63338970       5.36784955
C        5.11648194      -4.66125629       6.13482425
C        4.98937838      -5.88610866       5.47032039
Br       5.58453339      -7.48875364       6.23537716
C        4.55384744      -5.56946795       4.20281117
N        4.49813998      -6.38324286       3.07208339
C        4.26642017      -7.74505287       3.03584376
C        4.30700658      -8.18764654       1.73195404
C        4.59918091      -7.07272135       0.92444749
C        4.72284934      -5.98807794       1.76366870
H        2.86414880      -0.12772002       2.65775800
H        4.28645241      -1.54023466       4.07469973
H        2.24242008      -5.05635918       2.56296583
H        0.87328916      -3.63262077       1.13485033
H        5.49483791      -4.46302842       7.12980478
H        4.04161571      -8.29676785       3.93665302
H        4.14459567      -9.20709125       1.40574864
H        4.72293967      -7.05807003      -0.15100912
H        4.98627134      -4.96490502       1.52987576
C       -0.00445707       0.01189536      -1.78238275
H       -0.66409135       0.67374010      -2.43557963
H        0.65740317      -0.63156657      -2.45157240
C       -0.90989263      -0.90692880      -0.91072765
C        0.90977584       0.90977584      -0.90977584
C       -0.00465871       1.77757030       0.00794375
H       -0.66225468       2.44313916      -0.64384735
H        0.64322798       2.43503045       0.67728295
C       -1.78241447       0.00034974      -0.00472694
H       -2.45427497      -0.65498947       0.64260836
H       -2.43311707       0.67328779      -0.65473579
C       -0.91132561       0.90220522       0.91563759
C       -0.01476271      -0.02253852       1.78660255
H       -0.67934791      -0.69751639       2.42135241
H        0.63392994       0.61504881       2.47327442
C        0.01484550      -1.77751727      -0.01636693
H        0.67870853      -2.42144646      -0.68295456
H       -0.62264859      -2.45592969       0.64226336
C        1.78714474       0.01002794       0.00389507
H        2.44202412       0.67113390       0.66197326
H        2.45385902      -0.65136977      -0.64189061
C        0.91606151      -0.90478549       0.90901405
