113
Properties=species:S:1:pos:R:3 pbc="F F F"
C        0.00000000       0.00000000       0.00000000
C        0.88156080       0.88156080      -0.88156080
C        0.31956406       1.95155292      -1.57259179
C        1.12787464       2.75643632      -2.38031849
C        2.49949399       2.48173286      -2.51462567
C        3.05794470       1.42195801      -1.78648838
C        2.24599579       0.61748035      -0.97949502
N        3.29984782       3.33427439      -3.33691105
N        2.86635582       4.61211552      -3.54955375
C        3.94896822       5.26543659      -3.96844558
C        5.03783269       4.40968757      -4.16857509
C        4.56695645       3.14773739      -3.88172065
N        5.16102622       1.91481388      -4.14791405
C        6.51283755       1.62951946      -4.17524772
C        6.70020179       0.30254479      -4.49414850
C        5.42601920      -0.25860809      -4.69922657
C        4.50556822       0.74483025      -4.49448543
H       -0.74157265       2.17184706      -1.48964034
H        0.67024898       3.59043737      -2.91098839
H        4.12433085       1.21397044      -1.79373172
H        2.69145519      -0.20411941      -0.42371241
H        3.87898186       6.33093156      -4.14804562
H        7.24649338       2.37958389      -3.91924723
H        7.65624732      -0.19956933      -4.57104549
H        5.19788608      -1.27871981      -4.98112224
H        3.42893418       0.72179879      -4.60060707
C        6.27159782       4.87581248      -4.74663319
C        7.30487612       5.26619209      -5.23075686
Br       8.97559973       5.89740290      -6.01354388
C       -0.88156080      -0.88156080      -0.88156080
C       -1.80562781      -1.74241664      -0.29566432
C       -2.61061010      -2.54976299      -1.10425637
C       -2.48040472      -2.51244418      -2.50300363
C       -1.56979754      -1.61642544      -3.08016811
C       -0.76473099      -0.81021859      -2.26802159
N       -3.33011848      -3.34037033      -3.30054445
N       -4.52263612      -3.73883066      -2.76655831
C       -5.24821168      -4.11692093      -3.81771780
C       -4.50508095      -4.10769312      -5.00332128
C       -3.23364059      -3.72935157      -4.63342233
N       -2.05511854      -3.79297618      -5.37565943
C       -1.92305139      -3.65073472      -6.74381861
C       -0.60028557      -3.79706040      -7.09954912
C        0.11908008      -4.06554201      -5.92017575
C       -0.78951960      -4.06982169      -4.88554262
H       -1.91191864      -1.79287683       0.78488073
H       -3.32946485      -3.21487907      -0.62733081
H       -1.48393820      -1.49199212      -4.15610270
H       -0.05930531      -0.12291478      -2.72882810
H       -6.27525219      -4.42188733      -3.66081952
H       -2.77324727      -3.40805224      -7.36402500
H       -0.20418269      -3.71943616      -8.10410463
H        1.18171886      -4.25207179      -5.82993558
H       -0.63438678      -4.28125092      -3.83570235
C       -5.04656757      -4.60663881      -6.24083711
C       -5.50006262      -5.02450583      -7.27725662
Br      -6.23332575      -5.70016145      -8.95305931
C       -0.88156080       0.88156080       0.88156080
C       -2.26748299       0.78712393       0.78910185
C       -3.07279019       1.59606170       1.59577757
C       -2.49357111       2.51701398       2.48526743
C       -1.09709809       2.57716912       2.59212387
C       -0.29365213       1.76674709       1.78257195
N       -3.34658401       3.31806541       3.30638384
N       -4.60109567       2.85004703       3.57688240
C       -4.99389194       3.54709643       4.64186204
C       -4.08259863       4.55375829       4.97973843
C       -3.08775492       4.47818554       4.03047403
N       -2.07192682       5.39354510       3.75828223
C       -1.43385691       6.22326727       4.66048055
C       -0.50098656       6.99388515       4.00202338
C       -0.57266829       6.65626446       2.63770493
C       -1.54420930       5.68860713       2.51206747
H       -2.73282428       0.08864409       0.09844639
H       -4.15502393       1.50580735       1.51084345
H       -0.59956250       3.21503946       3.31743105
H        0.78831560       1.82687559       1.87248820
H       -5.94878753       3.31342883       5.09574267
H       -1.65488432       6.17397618       5.71646400
H        0.15574273       7.72110837       4.46235785
H        0.00702826       7.07992259       1.82739418
H       -1.92363870       5.20759395       1.62010740
C       -4.36490267       5.51547821       6.01366261
C       -4.60133230       6.32091865       6.87957412
Br      -4.98361901       7.62324771       8.27967979
C        0.88156080      -0.88156080       0.88156080
C        1.90824834      -0.30844664       1.62701379
C        2.71516813      -1.11728002       2.43218131
C        2.50953912      -2.50663258       2.47968083
C        1.45077494      -3.06534276       1.75027338
C        0.64535714      -2.25315249       0.94446154
N        3.34346193      -3.30220650       3.32536483
N        3.94135803      -2.69415483       4.39251224
C        4.28860536      -3.69819010       5.19605494
C        4.05866569      -4.94771619       4.60971347
C        3.56967203      -4.67527811       3.35146435
N        3.40653953      -5.54399122       2.27322340
C        3.10052890      -6.89048415       2.32659167
C        3.04347753      -7.40387091       1.04954664
C        3.34877405      -6.35212855       0.16573508
C        3.57766881      -5.23283198       0.93438312
H        2.08913639       0.76280664       1.59358500
H        3.51166083      -0.65002498       3.00998893
H        1.19993445      -4.12072745       1.81137111
H       -0.16961030      -2.70031458       0.38034392
H        4.73274984      -3.46868681       6.15652238
H        2.89784668      -7.37954499       3.26793284
H        2.80848988      -8.42849480       0.79073881
H        3.41206455      -6.40213311      -0.91390915
H        3.88186110      -4.24020483       0.62927411
C        4.48214544      -6.17053320       5.24136485
C        4.83680974      -7.19464244       5.77037288
Br       5.41027192      -8.85054047       6.62573413
