178
Properties=species:S:1:pos:R:3 pbc="F F F"
C        1.82848199       1.82848199      -1.82848199
C        3.31514533       1.55159807      -1.59447740
H        3.52507025       0.47737719      -1.64705162
C        3.72120062       2.02568598      -0.25770521
C        4.04390696       2.43504008       0.82515437
C        4.44783461       2.98135670       2.19620773
C        4.76723675       3.42443664       3.26510178
C        5.16687436       3.96722041       4.57463279
H        4.72957895       3.36786334       5.37969672
O        4.75573485       5.33550032       4.70143476
C        3.34729057       5.57474984       4.77722788
C        2.72101247       4.97797859       6.03429280
C        3.17073426       7.09101166       4.77958410
C        6.69213875       3.92375220       4.68754916
O        4.14957364       2.23856666      -2.53349066
C        4.03047926       1.89209819      -3.91314184
C        5.02022248       2.77947026      -4.66397807
C        4.33538299       0.42298024      -4.18572878
H        1.55882936       2.86878751      -1.62058041
H        1.51762498       1.59439554      -2.84901780
H        2.85154422       5.17532511       3.88550541
H        3.30202400       5.23788717       6.92536878
H        2.69006270       3.88547946       5.97726386
H        1.69145876       5.32565841       6.16763307
H        3.67059197       7.54160193       5.64468921
H        2.11309239       7.37107312       4.80120094
H        3.62943199       7.53120504       3.88743902
H        7.10090646       2.93961045       4.43842431
H        7.17789582       4.69076006       4.07610020
H        3.02622457       2.14001887      -4.27067050
H        6.04641392       2.59458332      -4.32665684
H        4.81077178       3.83675142      -4.46712004
H        4.96975851       2.61038469      -5.74387504
H        5.28690520       0.12712994      -3.73151583
H        4.37904622       0.22195181      -5.26105499
H        3.56065790      -0.22418083      -3.76270581
C        7.10859196       4.17955488       6.04207184
C        7.45737153       4.39378962       7.17648459
Br       8.02131859       4.74018909       9.01073406
C       -1.82848199      -1.82848199      -1.82848199
C       -2.28430215      -1.08879881      -3.08811984
H       -1.43316657      -0.62087138      -3.59546111
C       -3.24278055      -0.02301696      -2.73879430
C       -4.03837126       0.82786990      -2.44329131
C       -5.06785373       1.89205828      -2.05718813
C       -5.88712949       2.71574007      -1.75518219
C       -6.89432526       3.72723431      -1.39237102
H       -6.42170584       4.54962639      -0.84566613
O       -7.93469304       3.14200154      -0.59710891
C       -7.56729064       2.70711312       0.71536500
C       -7.14515748       3.86403504       1.61642417
C       -8.79888658       2.01870234       1.29802241
C       -7.53310802       4.27501293      -2.67024670
O       -2.96213273      -1.95099328      -4.00850495
C       -2.22258549      -3.02628223      -4.58685156
C       -3.19188394      -3.76708932      -5.50469754
C       -1.00921685      -2.55408292      -5.38079224
H       -2.66920334      -2.16527271      -1.21372123
H       -1.20646118      -2.69637686      -2.05820028
H       -6.76132424       1.96756863       0.65239169
H       -7.86683024       4.68610985       1.56617800
H       -6.17528589       4.26759280       1.30941478
H       -7.04744869       3.54026017       2.65770443
H       -9.64310061       2.71488397       1.36071195
H       -8.59943721       1.61933412       2.29713853
H       -9.11883056       1.19462271       0.65100985
H       -6.78781942       4.59200869      -3.40628188
H       -8.22540552       3.56224587      -3.12939602
H       -1.91057710      -3.72339129      -3.80294556
H       -3.56170356      -3.10778586      -6.29816466
H       -4.06951897      -4.10349957      -4.94162470
H       -2.71898820      -4.63976301      -5.96526703
H       -1.28508220      -1.76842750      -6.09204128
H       -0.54986922      -3.38265791      -5.92952589
H       -0.24466594      -2.13605088      -4.71846606
C       -8.31306467       5.45121955      -2.38422988
C       -8.96627836       6.43629259      -2.14469079
Br     -10.02246965       8.02907238      -1.75737634
C       -1.82848199       1.82848199       1.82848199
C       -1.62963949       1.51796287       3.31361844
H       -0.56476443       1.51266680       3.57206783
C       -2.17912575       0.18770182       3.63776425
C       -2.64922504      -0.88846678       3.89303441
C       -3.27218722      -2.24957694       4.21037330
C       -3.77519104      -3.31013628       4.46151685
C       -4.39176664      -4.60981926       4.77751459
H       -3.80866709      -5.42150206       4.33058054
O       -5.74422286      -4.65656176       4.30213931
C       -5.92247511      -4.66032586       2.88266328
C       -5.35298340      -5.91481293       2.22652779
C       -7.42785685      -4.58632951       2.64063448
C       -4.42238167      -4.79058611       6.29654623
O       -2.31236560       2.45008952       4.15917585
C       -1.90139050       3.81649060       4.11783818
C       -2.79931793       4.56315880       5.10119407
C       -0.43716332       4.00876680       4.49816188
H       -2.86353408       1.67980825       1.50485495
H       -1.53654343       2.84987661       1.57461828
H       -5.46272952      -3.76696911       2.44560350
H       -5.67732235      -6.81754071       2.75476075
H       -4.25875986      -5.90605193       2.24557037
H       -5.65911278      -5.98751908       1.17789040
H       -7.93770001      -5.45098133       3.08078601
H       -7.66038635      -4.54937826       1.57195648
H       -7.84930151      -3.69587556       3.11977205
H       -3.44789908      -4.60425473       6.75844826
H       -5.18338886      -4.16664201       6.77580884
H       -2.08782949       4.22807151       3.12101295
H       -2.67590679       4.17365068       6.11809662
H       -3.85356118       4.42366690       4.83741516
H       -2.58147716       5.63545760       5.10708348
H       -0.20469009       3.50080568       5.44005520
H       -0.19190518       5.07097726       4.59917058
H        0.22549109       3.59083134       3.73384262
C       -4.75525254      -6.14890307       6.63972553
C       -5.03403188      -7.28649352       6.92713820
Br      -5.48479451      -9.12588107       7.39186017
C        1.82848199      -1.82848199       1.82848199
C        3.27861286      -1.34010249       1.84250545
H        3.32679056      -0.26643373       2.05627478
C        3.90925442      -1.56712042       0.52821697
C        4.41756978      -1.77665303      -0.54043013
C        5.06053966      -2.07004639      -1.89760248
C        5.56864440      -2.31508509      -2.95715789
C        6.19931269      -2.61421650      -4.25406721
H        5.78452143      -1.96584856      -5.03262442
O        6.00412518      -3.99108434      -4.60540911
C        4.66373396      -4.38914348      -4.90806492
C        4.11942999      -3.70286292      -6.15759465
C        4.70449875      -5.89999012      -5.12232705
C        7.70535225      -2.36743803      -4.14444849
O        4.07933748      -2.04443752       2.79785596
C        3.74328719      -1.91342872       4.17900337
C        4.74805936      -2.76891124       4.94670021
C        3.80191205      -0.47118037       4.67099959
H        1.73601081      -2.85429163       1.45789484
H        1.36421949      -1.78085814       2.81596069
H        4.01042290      -4.18374576      -4.05280474
H        4.83673405      -3.76078938      -6.98298104
H        3.92787226      -2.64158158      -5.97117555
H        3.17361223      -4.15257457      -6.47670270
H        5.36578296      -6.15889474      -5.95717300
H        3.70776957      -6.30250725      -5.32731226
H        5.10711756      -6.40165874      -4.23557831
H        7.93731195      -1.38545190      -3.72067125
H        8.21528114      -3.14719489      -3.56992035
H        2.74769523      -2.33127578       4.35794294
H        5.77159905      -2.41312589       4.78292914
H        4.71575608      -3.80552743       4.59335973
H        4.54142402      -2.76138981       6.02120441
H        4.75087082       0.00088178       4.39556192
H        3.68379393      -0.42002599       5.75823310
H        3.00179804       0.12862520       4.22601003
C        8.31760316      -2.37625112      -5.44777928
C        8.83036330      -2.38363208      -6.53931882
Br       9.65945307      -2.39556648      -8.30424593
C       -0.00445707       0.01189536      -1.78238275
H       -0.66409135       0.67374010      -2.43557963
H        0.65740317      -0.63156657      -2.45157240
C       -0.90989263      -0.90692880      -0.91072765
C        0.90977584       0.90977584      -0.90977584
C       -0.00465871       1.77757030       0.00794375
H       -0.66225468       2.44313916      -0.64384735
H        0.64322798       2.43503045       0.67728295
C       -1.78241447       0.00034974      -0.00472694
H       -2.45427497      -0.65498947       0.64260836
H       -2.43311707       0.67328779      -0.65473579
C       -0.91132561       0.90220522       0.91563759
C       -0.01476271      -0.02253852       1.78660255
H       -0.67934791      -0.69751639       2.42135241
H        0.63392994       0.61504881       2.47327442
C        0.01484550      -1.77751727      -0.01636693
H        0.67870853      -2.42144646      -0.68295456
H       -0.62264859      -2.45592969       0.64226336
C        1.78714474       0.01002794       0.00389507
H        2.44202412       0.67113390       0.66197326
H        2.45385902      -0.65136977      -0.64189061
C        0.91606151      -0.90478549       0.90901405
