170
Properties=species:S:1:pos:R:3 pbc="F F F"
C        1.82848199       1.82848199      -1.82848199
C        3.31514533       1.55159807      -1.59447740
H        3.52507025       0.47737719      -1.64705162
C        3.72120062       2.02568598      -0.25770521
C        4.04390696       2.43504008       0.82515437
C        4.44783461       2.98135670       2.19620773
C        4.76723675       3.42443664       3.26510178
C        5.16687436       3.96722041       4.57463279
H        4.72957895       3.36786334       5.37969672
O        4.75573485       5.33550032       4.70143476
C        3.34729057       5.57474984       4.77722788
C        2.72101247       4.97797859       6.03429280
C        3.17073426       7.09101166       4.77958410
C        6.69213875       3.92375220       4.68754916
Br       7.25818960       4.27144390       6.52864126
O        4.14957364       2.23856666      -2.53349066
C        4.03047926       1.89209819      -3.91314184
C        5.02022248       2.77947026      -4.66397807
C        4.33538299       0.42298024      -4.18572878
H        1.55882936       2.86878751      -1.62058041
H        1.51762498       1.59439554      -2.84901780
H        2.85154422       5.17532511       3.88550541
H        3.30202400       5.23788717       6.92536878
H        2.69006270       3.88547946       5.97726386
H        1.69145876       5.32565841       6.16763307
H        3.67059197       7.54160193       5.64468921
H        2.11309239       7.37107312       4.80120094
H        3.62943199       7.53120504       3.88743902
H        7.10090646       2.93961045       4.43842431
H        7.17789582       4.69076006       4.07610020
H        3.02622457       2.14001887      -4.27067050
H        6.04641392       2.59458332      -4.32665684
H        4.81077178       3.83675142      -4.46712004
H        4.96975851       2.61038469      -5.74387504
H        5.28690520       0.12712994      -3.73151583
H        4.37904622       0.22195181      -5.26105499
H        3.56065790      -0.22418083      -3.76270581
C       -1.82848199      -1.82848199      -1.82848199
C       -3.27156824      -1.32105372      -1.86859884
H       -3.30238607      -0.24982362      -2.09728938
C       -3.92267836      -1.52187376      -0.56003970
C       -4.44797442      -1.71015981       0.50434156
C       -5.11287872      -1.97659979       1.85649493
C       -5.63832262      -2.20051115       2.91226216
C       -6.29020190      -2.47366607       4.20440600
H       -5.87710365      -1.82042672       4.97978480
O       -6.11832956      -3.84814166       4.57667080
C       -4.78758988      -4.25990470       4.90268205
C       -4.25076686      -3.56412408       6.15019267
C       -4.85161014      -5.76704196       5.13649028
C       -7.79117612      -2.20834144       4.07117577
Br      -8.64697997      -2.18529941       5.83128714
O       -4.06893018      -2.02749466      -2.82520612
C       -3.71276407      -1.91964348      -4.20331173
C       -4.71867929      -2.77195065      -4.97304086
C       -3.74534072      -0.48351899      -4.71523230
H       -1.75482215      -2.85033372      -1.44304141
H       -1.35049953      -1.80039209      -2.81014670
H       -4.12022390      -4.07480291       4.05366290
H       -4.97972425      -3.60133182       6.96651367
H       -4.04242424      -2.50810474       5.95225067
H       -3.31544653      -4.02204956       6.48801199
H       -5.52739849      -6.00581049       5.96570429
H       -3.86322917      -6.18000141       5.36026601
H       -5.24911477      -6.27523199       4.25114875
H       -8.00418243      -1.22916480       3.63125462
H       -8.30388870      -2.98892228       3.50025530
H       -2.72061055      -2.35310070      -4.36320271
H       -5.73941164      -2.40037641      -4.82786604
H       -4.70509263      -3.80403808      -4.60551253
H       -4.49765948      -2.78169799      -6.04466078
H       -4.69142320       0.00482548      -4.45895325
H       -3.61206318      -0.44863348      -5.80135636
H       -2.94319952       0.11152591      -4.26750926
C       -1.82848199       1.82848199       1.82848199
C       -3.05089111       2.34426282       1.06606687
H       -3.56870253       1.52325098       0.55754556
C       -2.64094514       3.32278327       0.04086340
C       -2.29615993       4.13384022      -0.77620748
C       -1.84741466       5.18213035      -1.79656144
C       -1.49626130       6.01584637      -2.58553607
C       -1.07305609       7.04102000      -3.55461412
H       -0.51573905       6.57650115      -4.37449463
O       -0.26555978       8.03882660      -2.91458596
C        1.02156304       7.61880030      -2.45242474
C        1.94462309       7.20381385      -3.59449249
C        1.61916234       8.81109634      -1.70977217
C       -2.31412519       7.73446915      -4.12025255
Br      -1.84549786       8.82913572      -5.67364134
O       -3.97668560       3.02403698       1.92090838
C       -4.60924939       2.27096026       2.95550963
C       -5.52016569       3.24545718       3.69804794
C       -5.42400201       1.09692029       2.42316970
H       -1.19965303       2.63969443       2.20884982
H       -2.10291907       1.18832538       2.66979387
H        0.91218908       6.79357616      -1.74002317
H        1.94090255       7.95072256      -4.39527761
H        1.62147913       6.25614994      -4.03639251
H        2.97218037       7.06480896      -3.24314449
H        1.72806198       9.67325745      -2.37769078
H        2.59927143       8.56949077      -1.28725477
H        0.95705369       9.12609056      -0.89583888
H       -3.06189581       7.02171933      -4.48152253
H       -2.77411058       8.41904175      -3.40059665
H       -3.85658090       1.91464731       3.66568574
H       -6.28182818       3.65870088       3.02712502
H       -4.94187261       4.09513928       4.07763135
H       -6.02097282       2.76119736       4.54184807
H       -6.10244663       1.41752789       1.62557645
H       -6.01114568       0.63019464       3.22071271
H       -4.77216315       0.32522435       2.00179537
C        1.82848199      -1.82848199       1.82848199
C        3.11794316      -2.23274535       1.11053229
H        3.61465500      -1.35710007       0.67774399
C        2.82088200      -3.17169198       0.01201783
C        2.56790753      -3.95209084      -0.86620570
C        2.23590251      -4.96296989      -1.96588881
C        1.97635569      -5.76791202      -2.81769610
C        1.66570864      -6.75730057      -3.86354724
H        1.12793398      -6.27744954      -4.68763795
O        0.88321814      -7.83241966      -3.32583739
C       -0.44900140      -7.50991620      -2.91610228
C       -1.33108628      -7.08079994      -4.08501540
C       -1.01666564      -8.77342668      -2.27459921
C        2.97328963      -7.34894207      -4.39388991
Br       2.65300124      -8.37659084      -6.02859985
O        4.03348646      -2.90922043       1.97892406
C        4.56487957      -2.18349258       3.08734714
C        5.48856131      -3.14814453       3.82696497
C        5.33867220      -0.93846559       2.66695421
H        1.22748017      -2.69303091       2.12768619
H        2.01980552      -1.22365161       2.71758120
H       -0.42584588      -6.72215192      -2.15494212
H       -1.24119784      -7.77930141      -4.92356118
H       -1.03930160      -6.09326098      -4.45568109
H       -2.38244395      -7.01803073      -3.78610268
H       -1.03964214      -9.60053582      -2.99338898
H       -2.03045718      -8.60988309      -1.89646134
H       -0.38267027      -9.09820035      -1.44233209
H        3.69746930      -6.57719913      -4.67257583
H        3.43207354      -8.04769282      -3.68721068
H        3.75566311      -1.90975713       3.77149371
H        6.30787879      -3.48039513       3.17938017
H        4.94018458      -4.04826035       4.12619831
H        5.91434708      -2.68660338       4.72306778
H        6.07658645      -1.17561985       1.89334466
H        5.85403648      -0.48707607       3.52094048
H        4.66747978      -0.18034702       2.25135608
C       -0.00445707       0.01189536      -1.78238275
H       -0.66409135       0.67374010      -2.43557963
H        0.65740317      -0.63156657      -2.45157240
C       -0.90989263      -0.90692880      -0.91072765
C        0.90977584       0.90977584      -0.90977584
C       -0.00465871       1.77757030       0.00794375
H       -0.66225468       2.44313916      -0.64384735
H        0.64322798       2.43503045       0.67728295
C       -1.78241447       0.00034974      -0.00472694
H       -2.45427497      -0.65498947       0.64260836
H       -2.43311707       0.67328779      -0.65473579
C       -0.91132561       0.90220522       0.91563759
C       -0.01476271      -0.02253852       1.78660255
H       -0.67934791      -0.69751639       2.42135241
H        0.63392994       0.61504881       2.47327442
C        0.01484550      -1.77751727      -0.01636693
H        0.67870853      -2.42144646      -0.68295456
H       -0.62264859      -2.45592969       0.64226336
C        1.78714474       0.01002794       0.00389507
H        2.44202412       0.67113390       0.66197326
H        2.45385902      -0.65136977      -0.64189061
C        0.91606151      -0.90478549       0.90901405
