126
Properties=species:S:1:pos:R:3 pbc="F F F"
C        1.79302891       1.79302891      -1.79302891
C        1.55199167       3.15951894      -1.85018956
C        2.37265700       3.95699105      -2.63931338
C        3.42256099       3.37931555      -3.37440007
C        4.29639722       4.28253258      -4.16696861
O        4.04830798       5.48256649      -4.23974773
C        5.47652894       3.67254230      -4.82806701
Br       6.70410416       4.75745688      -5.70814377
C        5.59697742       2.34164563      -4.75865589
N        4.72868295       1.44969049      -4.13695271
C        4.92623758      -0.02401262      -4.20313800
C        5.28226109      -0.49752468      -5.61853497
C        5.99237583      -0.45658417      -3.19727731
C        3.66985848       1.98538459      -3.35540937
C        2.83582893       1.21226665      -2.52758001
H        0.74401135       3.61224371      -1.28165710
H        2.20155814       5.03155387      -2.67733132
H        6.45438638       1.86913973      -5.22876701
H        3.99638532      -0.55342181      -3.97632257
H        6.28711945      -0.18957646      -5.92389586
H        4.56752533      -0.10892023      -6.35196332
H        5.25374809      -1.59179246      -5.66928657
H        6.96378974      -0.00241073      -3.42111931
H        6.11830172      -1.54429294      -3.20946741
H        5.71557487      -0.16088801      -2.17978830
H        2.98213444       0.14418298      -2.41299523
C       -1.79302891      -1.79302891      -1.79302891
C       -1.54088751      -3.15686796      -1.86394471
C       -2.36147960      -3.95460978      -2.65287205
C       -3.42251571      -3.37972794      -3.37403295
C       -4.29540580      -4.28363339      -4.16685922
O       -4.03776120      -5.48083529      -4.25202570
C       -5.48630065      -3.67818392      -4.81265368
Br      -6.71210998      -4.76606171      -5.69153311
C       -5.61745465      -2.34900626      -4.73081804
N       -4.75147456      -1.45495746      -4.10889412
C       -4.96210466       0.01750764      -4.16076593
C       -5.33425612       0.49996119      -5.56897644
C       -6.02322055       0.43236346      -3.14221187
C       -3.68147721      -1.98817927      -3.34099596
C       -2.84698321      -1.21500420      -2.51368818
H       -0.72424660      -3.60746623      -1.30619933
H       -2.18158804      -5.02730493      -2.70155036
H       -6.48284518      -1.87988823      -5.18955970
H       -4.03487486       0.55291997      -3.93733119
H       -6.33904155       0.18601831      -5.86841560
H       -4.62255594       0.12374271      -6.31175519
H       -5.31547857       1.59482489      -5.61058852
H       -6.99262279      -0.02820007      -3.36167545
H       -6.15848442       1.51901737      -3.14400914
H       -5.73520700       0.13041507      -2.12968323
H       -3.00137197      -0.14922587      -2.38871481
C       -1.79302891       1.79302891       1.79302891
C       -2.73610185       1.20195991       2.62363842
C       -3.51986005       2.01128818       3.43781320
C       -3.36149574       3.40782965       3.40695122
C       -4.19386620       4.22309823       4.32893398
O       -5.05048654       3.69111478       5.02902088
C       -3.91932733       5.68054196       4.37726896
Br      -4.80818946       6.74604393       5.61547143
C       -3.02846773       6.16476167       3.50404955
N       -2.32539234       5.45261089       2.53732291
C       -1.42190331       6.12155188       1.56190777
C       -2.04981679       7.38810531       0.96534927
C       -0.07853675       6.43475127       2.21978094
C       -2.42763002       4.03545531       2.54756710
C       -1.63475746       3.18509496       1.75582316
H       -2.86082629       0.12282725       2.65425862
H       -4.25034270       1.55574404       4.10435659
H       -2.80393895       7.22716912       3.52118504
H       -1.24458631       5.48276831       0.69193146
H       -2.12635876       8.20166403       1.69341606
H       -3.05274101       7.18121734       0.57661008
H       -1.43782137       7.75827873       0.13514211
H       -0.19473939       7.12677041       3.06098852
H        0.60843891       6.89195646       1.49995864
H        0.39287142       5.52379810       2.60354847
H       -0.86061777       3.57439899       1.10429588
C        1.79302891      -1.79302891       1.79302891
C        2.72815829      -1.20137939       2.63216250
C        3.51189036      -2.01087674       3.44619433
C        3.36150205      -3.40808208       3.40669247
C        4.19327930      -4.22385167       4.32876744
O        5.04301367      -3.69103706       5.03657146
C        3.92662032      -5.68304493       4.36747300
Br       4.81452875      -6.75049249       5.60468358
C        3.04334256      -6.16732050       3.48661588
N        2.34168079      -5.45369752       2.51994783
C        1.44737326      -6.12218802       1.53580168
C        2.08565424      -7.38188297       0.93573417
C        0.10214378      -6.44651295       2.18441223
C        2.43594360      -4.03607529       2.53863355
C        1.64274370      -3.18572302       1.74720887
H        2.84668184      -0.12175850       2.66947182
H        4.23610417      -1.55501230       4.11932686
H        2.82465912      -7.23103773       3.49659626
H        1.27132599      -5.47955026       0.66840983
H        2.16269389      -8.19905759       1.65968737
H        3.08955092      -7.16726008       0.55375742
H        1.48035617      -7.75080720       0.10007883
H        0.21753569      -7.14256338       3.02239926
H       -0.57825920      -6.90349919       1.45823619
H       -0.37646888      -5.54034957       2.57059447
H        0.87442086      -3.57567576       1.08921604
C       -0.00445707       0.01189536      -1.78238275
H       -0.66409135       0.67374010      -2.43557963
H        0.65740317      -0.63156657      -2.45157240
C       -0.90989263      -0.90692880      -0.91072765
C        0.90977584       0.90977584      -0.90977584
C       -0.00465871       1.77757030       0.00794375
H       -0.66225468       2.44313916      -0.64384735
H        0.64322798       2.43503045       0.67728295
C       -1.78241447       0.00034974      -0.00472694
H       -2.45427497      -0.65498947       0.64260836
H       -2.43311707       0.67328779      -0.65473579
C       -0.91132561       0.90220522       0.91563759
C       -0.01476271      -0.02253852       1.78660255
H       -0.67934791      -0.69751639       2.42135241
H        0.63392994       0.61504881       2.47327442
C        0.01484550      -1.77751727      -0.01636693
H        0.67870853      -2.42144646      -0.68295456
H       -0.62264859      -2.45592969       0.64226336
C        1.78714474       0.01002794       0.00389507
H        2.44202412       0.67113390       0.66197326
H        2.45385902      -0.65136977      -0.64189061
C        0.91606151      -0.90478549       0.90901405
