134
Properties=species:S:1:pos:R:3 pbc="F F F"
C        1.79302891       1.79302891      -1.79302891
C        1.55199167       3.15951894      -1.85018956
C        2.37265700       3.95699105      -2.63931338
C        3.42256099       3.37931555      -3.37440007
C        4.29639722       4.28253258      -4.16696861
O        4.04830798       5.48256649      -4.23974773
C        5.47652894       3.67254230      -4.82806701
C        5.59697742       2.34164563      -4.75865589
N        4.72868295       1.44969049      -4.13695271
C        4.92623758      -0.02401262      -4.20313800
C        5.28226109      -0.49752468      -5.61853497
C        5.99237583      -0.45658417      -3.19727731
C        3.66985848       1.98538459      -3.35540937
C        2.83582893       1.21226665      -2.52758001
H        0.74401135       3.61224371      -1.28165710
H        2.20155814       5.03155387      -2.67733132
H        6.45438638       1.86913973      -5.22876701
H        3.99638532      -0.55342181      -3.97632257
H        6.28711945      -0.18957646      -5.92389586
H        4.56752533      -0.10892023      -6.35196332
H        5.25374809      -1.59179246      -5.66928657
H        6.96378974      -0.00241073      -3.42111931
H        6.11830172      -1.54429294      -3.20946741
H        5.71557487      -0.16088801      -2.17978830
H        2.98213444       0.14418298      -2.41299523
C        6.42705873       4.51260782      -5.50952356
C        7.22312743       5.21616270      -6.08024342
Br       8.51030318       6.35375143      -7.00304917
C       -1.79302891      -1.79302891      -1.79302891
C       -1.69751257      -3.17463338      -1.68955423
C       -2.51874588      -3.96892677      -2.48128878
C       -3.42257705      -3.37454621      -3.37915335
C       -4.30756533      -4.26861404      -4.16971904
O       -4.18545104      -5.48794165      -4.09722950
C       -5.34395639      -3.62147122      -5.01171064
C       -5.32524989      -2.28555499      -5.08647406
N       -4.43023479      -1.42065668      -4.46443467
C       -4.45900392       0.04934237      -4.69570141
C       -4.62111892       0.39878430      -6.18093676
C       -5.56515884       0.69099540      -3.85890553
C       -3.51756568      -1.96933174      -3.52375502
C       -2.68954949      -1.19623229      -2.68989382
H       -1.00311014      -3.63981880      -0.99498323
H       -2.46256019      -5.05281539      -2.39506775
H       -6.07603756      -1.78526318      -5.69099237
H       -3.50382712       0.50664657      -4.42210553
H       -5.61873191       0.15936640      -6.56207333
H       -3.88448615      -0.13535059      -6.79073169
H       -4.46900554       1.47296922      -6.33520589
H       -6.55356383       0.31251077      -4.14144526
H       -5.57031185       1.77800752      -3.99117185
H       -5.42311945       0.48196540      -2.79332111
H       -2.72941110      -0.11285902      -2.69704253
C       -6.30883031      -4.43347951      -5.70688029
C       -7.11691223      -5.11353645      -6.28908487
Br      -8.42351234      -6.21313101      -7.23046044
C       -1.79302891       1.79302891       1.79302891
C       -2.56335781       1.20851784       2.78982452
C       -3.34693080       2.02117529       3.60085535
C       -3.36219730       3.41269844       3.40138087
C       -4.18288633       4.23898677       4.32402531
O       -4.88902722       3.70634471       5.17525027
C       -4.08233485       5.71262789       4.18217551
C       -3.35523758       6.18095094       3.16109042
N       -2.67937562       5.43715695       2.19879357
C       -1.97304006       6.07682474       1.05549816
C       -2.80935536       7.18749561       0.40642041
C       -0.61437877       6.60940322       1.50928698
C       -2.60844831       4.02883204       2.37337209
C       -1.80852900       3.17936109       1.58778550
H       -2.55315663       0.13382615       2.95092938
H       -3.94139719       1.57347242       4.39557371
H       -3.25980032       7.25560521       3.03688759
H       -1.81449696       5.36064424       0.24414489
H       -2.90473545       8.06988441       1.04681900
H       -3.81594813       6.82880926       0.16581104
H       -2.33911030       7.51850869      -0.52637679
H       -0.72211052       7.38121730       2.27917049
H       -0.06876952       7.04765574       0.66705093
H        0.00179692       5.80723402       1.92903806
H       -1.16138557       3.56818820       0.80973888
C       -4.75802935       6.56845653       5.12270423
C       -5.32392350       7.28521302       5.91039703
Br      -6.23892648       8.44414764       7.18402967
C        1.79302891      -1.79302891       1.79302891
C        2.51237705      -1.21722978       2.83209335
C        3.29603063      -2.03074688       3.64218392
C        3.36260367      -3.41391605       3.39975689
C        4.18027586      -4.24350055       4.32212201
O        4.84174736      -3.71681680       5.21205803
C        4.13200050      -5.71420340       4.13093435
C        3.45283918      -6.17178994       3.07264982
N        2.78376222      -5.41878876       2.11277516
C        2.13472408      -6.04293672       0.92770216
C        3.02651882      -7.10522372       0.27152883
C        0.78045750      -6.63228869       1.32032278
C        2.66182180      -4.01977463       2.32905602
C        1.85984815      -3.17081824       1.54500920
H        2.46232845      -0.14916837       3.02641534
H        3.85046451      -1.59058902       4.46938980
H        3.39619799      -7.24432275       2.91177237
H        1.97859932      -5.30618184       0.13450493
H        3.13029006      -8.00446278       0.88668601
H        4.02801934      -6.70753474       0.07501434
H        2.59673224      -7.42044212      -0.68593215
H        0.88892512      -7.42487143       2.06870176
H        0.27601559      -7.05993437       0.44752623
H        0.12576302      -5.86385741       1.74485473
H        1.25036113      -3.55435253       0.73459899
C        4.80522129      -6.57842559       5.06554324
C        5.36904369      -7.30221168       5.84827818
Br       6.28069684      -8.47251256       7.11389439
C       -0.00445707       0.01189536      -1.78238275
H       -0.66409135       0.67374010      -2.43557963
H        0.65740317      -0.63156657      -2.45157240
C       -0.90989263      -0.90692880      -0.91072765
C        0.90977584       0.90977584      -0.90977584
C       -0.00465871       1.77757030       0.00794375
H       -0.66225468       2.44313916      -0.64384735
H        0.64322798       2.43503045       0.67728295
C       -1.78241447       0.00034974      -0.00472694
H       -2.45427497      -0.65498947       0.64260836
H       -2.43311707       0.67328779      -0.65473579
C       -0.91132561       0.90220522       0.91563759
C       -0.01476271      -0.02253852       1.78660255
H       -0.67934791      -0.69751639       2.42135241
H        0.63392994       0.61504881       2.47327442
C        0.01484550      -1.77751727      -0.01636693
H        0.67870853      -2.42144646      -0.68295456
H       -0.62264859      -2.45592969       0.64226336
C        1.78714474       0.01002794       0.00389507
H        2.44202412       0.67113390       0.66197326
H        2.45385902      -0.65136977      -0.64189061
C        0.91606151      -0.90478549       0.90901405
