105
Properties=species:S:1:pos:R:3 pbc="F F F"
C        0.00000000       0.00000000       0.00000000
C        0.88312489       0.88312489      -0.88312489
C        0.64208765       2.24961492      -0.94028554
C        1.46275297       3.04708702      -1.72940936
C        2.51265697       2.46941152      -2.46449605
C        3.38649320       3.37262855      -3.25706459
O        3.13840395       4.57266246      -3.32984371
C        4.56662491       2.76263827      -3.91816299
Br       5.79420014       3.84755285      -4.79823975
C        4.68707340       1.43174160      -3.84875187
N        3.81877892       0.53978647      -3.22704868
C        4.01633355      -0.93391665      -3.29323398
C        4.37235707      -1.40742871      -4.70863094
C        5.08247181      -1.36648820      -2.28737328
C        2.75995445       1.07548057      -2.44550534
C        1.92592491       0.30236262      -1.61767599
H       -0.16589268       2.70233969      -0.37175308
H        1.29165411       4.12164984      -1.76742730
H        5.54448235       0.95923570      -4.31886299
H        3.08648130      -1.46332584      -3.06641855
H        5.37721543      -1.09948048      -5.01399183
H        3.65762131      -1.01882425      -5.44205929
H        4.34384407      -2.50169648      -4.75938255
H        6.05388571      -0.91231475      -2.51121528
H        5.20839769      -2.45419696      -2.29956338
H        4.80567084      -1.07079203      -1.26988427
H        2.07223041      -0.76572104      -1.50309120
C       -0.88312489      -0.88312489      -0.88312489
C       -1.28885135      -2.12663289      -0.41650387
C       -2.10824546      -2.91342494      -1.21757896
C       -2.50713515      -2.45436747      -2.48506192
C       -3.41845260      -3.31568716      -3.28204659
O       -3.73753513      -4.42881956      -2.87455543
C       -3.93368015      -2.75716346      -4.55658256
Br      -5.19885410      -3.70620691      -5.53493174
C       -3.44671743      -1.57358859      -4.94726085
N       -2.49463693      -0.79819816      -4.29277898
C       -1.96692315       0.46596371      -4.87469144
C       -1.63018734       0.32128307      -6.36465503
C       -2.96092968       1.60413437      -4.64656158
C       -2.08281764      -1.20344513      -2.99467760
C       -1.27480375      -0.42333582      -2.14782394
H       -0.98644331      -2.48546285       0.56370607
H       -2.44481579      -3.88265162      -0.85326385
H       -3.81065929      -1.13854164      -5.87338011
H       -1.01213099       0.73852598      -4.41596901
H       -2.52338604       0.22073754      -6.98907826
H       -0.99140662      -0.55146828      -6.53798146
H       -1.09092943       1.20738193      -6.71798263
H       -3.91705896       1.40832870      -5.14405599
H       -2.56560615       2.54806297      -5.03622092
H       -3.16506272       1.73945454      -3.57915490
H       -0.94305872       0.56812871      -2.43467057
C       -0.88312489       0.88312489       0.88312489
C       -2.22956535       0.57500382       1.02741893
C       -3.01970953       1.37115062       1.84838921
C       -2.45872639       2.47690558       2.51093257
C       -3.33732702       3.26837782       3.41048150
O       -4.53390803       3.00873550       3.49826660
C       -2.69738073       4.34827972       4.20176572
Br      -3.69429983       5.28143091       5.46426200
C       -1.40677983       4.60355382       3.95723322
N       -0.58530443       3.97107747       3.02923216
C        0.81759605       4.40553061       2.78771632
C        0.94148545       5.93135648       2.68368827
C        1.73314917       3.85566097       3.88084509
C       -1.09593683       2.82839905       2.35660449
C       -0.32063329       1.98705672       1.53827351
H       -2.66812826      -0.28036067       0.52043250
H       -4.07259663       1.12752700       1.98060763
H       -0.91154412       5.38491112       4.52612580
H        1.17617363       4.04726377       1.81848387
H        0.78430256       6.43176915       3.64426018
H        0.21890928       6.33405655       1.96570908
H        1.94501029       6.20646021       2.34008021
H        1.45474574       4.23896604       4.86856595
H        2.77457051       4.13645995       3.69187467
H        1.68141843       2.76257618       3.92360533
H        0.74226497       2.15071209       1.40115346
C        0.88312489      -0.88312489       0.88312489
C        1.17282335      -0.47926258       2.17990217
C        1.95912263      -1.29823843       2.98188830
C        2.45902206      -2.51108594       2.47645653
C        3.25752955      -3.36908871       3.38956808
O        3.53877040      -2.98206585       4.52007387
C        3.66331795      -4.70281954       2.88128868
Br       4.52901027      -5.89724547       4.01373699
C        3.38241596      -4.98204105       1.60310985
N        2.75240224      -4.15335557       0.67985627
C        2.57335149      -4.54667869      -0.74437930
C        3.84512314      -5.16661208      -1.33817593
C        1.38563231      -5.49862867      -0.88090409
C        2.20187529      -2.93028017       1.14878491
C        1.38295644      -2.08932493       0.37368215
H        0.78655015       0.45558529       2.57723523
H        2.17776007      -0.99771238       4.00525881
H        3.66288562      -5.95330983       1.20638559
H        2.39221728      -3.66949020      -1.37213346
H        4.06077724      -6.15751436      -0.92656482
H        4.71393854      -4.52449055      -1.15757273
H        3.73631345      -5.28711332      -2.42189664
H        1.54734308      -6.42581837      -0.32037521
H        1.22009393      -5.76399887      -1.93032869
H        0.46745151      -5.03827353      -0.50096195
H        1.09339718      -2.35335357      -0.63715017
