197
Properties=species:S:1:pos:R:3 pbc="F F F"
C        0.00000000       0.00000000       0.00000000
O        0.13842237      -0.10177380      -2.91625486
C        0.81422459       0.74032388      -2.33396224
C        0.85990241       0.85990241      -0.85990241
C        1.85678481       1.69295344      -0.25628620
H        2.10466776       1.58308775       0.79530413
N        2.79012826       2.37334643      -1.02655334
C        2.51413246       2.60093890      -2.40690635
C        1.60771803       1.74650734      -3.08639994
C        1.39173923       1.85215552      -4.46733611
C        2.02610619       2.84829571      -5.19336286
C        2.83241549       3.76846821      -4.52988584
C        3.05804242       3.68389163      -3.13553367
C        3.82100038       4.83216732      -2.51275839
F        5.15237035       4.77186710      -2.79929965
F        3.40173875       6.04569246      -2.97478997
F        3.74153357       4.91948687      -1.15661219
C        4.23558757       2.17197144      -0.70316111
C        4.59891511       0.77854507      -0.81038929
C        4.89838860      -0.36992566      -0.89877165
C        5.24259440      -1.69001751      -1.00035038
C        5.54205817      -2.83848827      -1.08873507
C        5.90539478      -4.23190497      -1.19595832
N        7.28034835      -4.38651489      -1.76356369
C        7.38236545      -4.43159842      -3.14677087
H        6.57238636      -4.93083994      -3.66956161
C        8.32529248      -3.63244336      -3.86501268
Br       8.32536976      -3.66149271      -5.71729049
C        9.18066655      -2.68432855      -3.12371135
O        9.85495825      -1.82222865      -3.67502808
C        9.21288539      -2.86503213      -1.64888345
C        8.33274349      -3.77827039      -1.00689927
C        8.57321965      -4.04815931       0.36194579
C        9.53135674      -3.28047487       1.06832532
C       10.30394723      -2.31380239       0.43453306
C       10.16551614      -2.12613246      -0.93133647
C        7.91527167      -5.16677948       1.13545400
F        8.73451649      -5.70465746       2.08637585
F        6.80920046      -4.74506976       1.81087570
F        7.51520461      -6.22275679       0.37512682
H        0.71381600       1.16502775      -4.97247665
H        1.85866072       2.93607822      -6.26458340
H        3.26965260       4.58847775      -5.10133088
H        4.40846451       2.52773758       0.32024125
H        4.89398029       2.76742437      -1.34141751
H        5.18691549      -4.75130591      -1.84387293
H        5.80894271      -4.73244472      -0.23289561
H        9.69742820      -3.46295738       2.13137395
H       11.04008111      -1.74165306       0.99438775
H       10.80653830      -1.40977097      -1.44287223
O       -2.80491133      -0.64652669       0.49853459
C       -2.28284487      -1.08386563      -0.52180021
C       -0.85990241      -0.85990241      -0.85990241
C       -0.26894757      -1.60786086      -1.92921602
H        0.81065108      -1.68622923      -2.01687324
N       -1.00025266      -2.55010402      -2.63967136
C       -2.42441418      -2.48327498      -2.61428855
C       -3.07256021      -1.83951926      -1.52854583
C       -4.46781013      -1.84896984      -1.39445090
C       -5.25314996      -2.44648775      -2.36812705
C       -4.64633257      -2.98587094      -3.49856604
C       -3.24019761      -2.98048230      -3.65678781
C       -2.71819992      -3.45146741      -4.99625875
F       -2.79412410      -4.80665015      -5.12276285
F       -3.43607434      -2.94556335      -6.04058349
F       -1.42283466      -3.13029980      -5.26449817
C       -0.44112460      -3.93302616      -2.73656936
C       -0.25553999      -4.50749099      -1.42481849
C       -0.10258169      -4.98098545      -0.34366745
C        0.07324177      -5.52521557       0.89904653
C        0.22619638      -5.99870096       1.98019960
C        0.41178547      -6.57317238       3.29193879
N        0.08431094      -8.03239694       3.29068884
C       -1.24135488      -8.37402845       3.51784545
H       -1.78330039      -7.74605450       4.21824687
C       -1.94079765      -9.29952523       2.68246109
Br      -3.74115822      -9.61939329       2.97938398
C       -1.25577398      -9.86941784       1.50514247
O       -1.84220585     -10.49552127       0.62996945
C        0.21712548      -9.67575383       1.46189165
C        0.87078591      -8.84098755       2.40882927
C        2.28578626      -8.88129202       2.43239121
C        2.98241708      -9.58345886       1.41848523
C        2.31203966     -10.30425537       0.43660393
C        0.92874627     -10.37482574       0.47535932
C        3.13485147      -8.27046371       3.52257406
F        4.27211651      -8.98493242       3.76933273
F        3.56089640      -7.01620039       3.20204899
F        2.51569127      -8.16321977       4.73020750
H       -4.94139080      -1.37394475      -0.53598486
H       -6.33645349      -2.45306476      -2.26980409
H       -5.27958978      -3.39046273      -4.28940872
H        0.52079153      -3.87556508      -3.26118729
H       -1.06916817      -4.59711590      -3.33653810
H       -0.23540769      -6.05862007       4.01454525
H        1.42172490      -6.38767449       3.65655599
H        4.07369102      -9.59066865       1.41388076
H        2.86697866     -10.84336810      -0.32765087
H        0.40109207     -10.98286085      -0.25787078
O        0.35928671       0.44785826       2.86433188
C       -0.55314682       1.03914263       2.29622126
C       -0.85990241       0.85990241       0.85990241
C       -2.08460488       1.38616370       0.33525587
H       -2.47362884       1.03456461      -0.61574206
N       -2.99508292       2.04302946       1.15191565
C       -2.54846624       2.57718532       2.39632615
C       -1.39478566       2.03035825       3.01548141
C       -0.98234393       2.43693315       4.29195379
C       -1.67239183       3.43911055       4.95626238
C       -2.73946547       4.06889867       4.32240540
C       -3.16752679       3.67852322       3.03141771
C       -4.23054945       4.54392398       2.39145265
F       -5.46008008       4.32539125       2.93806579
F       -3.98669608       5.87589579       2.55962930
F       -4.39082611       4.37678954       1.05001698
C       -4.40645149       1.55056362       1.15370500
C       -4.46871941       0.16468153       1.55444852
C       -4.52005646      -0.97757303       1.88475116
C       -4.57904809      -2.29051882       2.26439800
C       -4.63037534      -3.43277138       2.59470102
C       -4.69265471      -4.81864655       2.99543996
N       -5.90033024      -5.08065950       3.83772641
C       -5.76571114      -4.87105355       5.20288030
H       -4.80001802      -5.12052921       5.63161922
C       -6.71706584      -4.11101456       5.95181051
Br      -6.41083664      -3.77786895       7.74819984
C       -7.84967969      -3.47734053       5.24771019
O       -8.58056008      -2.64537121       5.77256880
C       -8.08497625      -3.94500100       3.85676145
C       -7.15972469      -4.81070733       3.21235500
C       -7.56186710      -5.37776588       1.97901333
C       -8.75302280      -4.92848564       1.35801939
C       -9.58599383      -3.99523513       1.96485308
C       -9.26700438      -3.52484782       3.22856359
C       -6.83282874      -6.50384805       1.28405749
F       -7.67469982      -7.34255459       0.61133795
F       -5.95482890      -6.04814595       0.34657205
F       -6.11649645      -7.31204361       2.11286816
H       -0.11060552       1.98084406       4.75987082
H       -1.35367983       3.76012212       5.94552039
H       -3.22957322       4.90255651       4.82733151
H       -4.80916297       1.66702953       0.13976834
H       -5.05583710       2.14414909       1.80283598
H       -3.79122663      -5.07806960       3.56632547
H       -4.65804919      -5.47498033       2.12632475
H       -9.05060971      -5.33928121       0.39176838
H      -10.50049368      -3.67048077       1.47402740
H       -9.94373686      -2.83620616       3.73210886
O       -0.90192403      -1.54613512       2.30869234
C        0.27794569      -1.62769142       1.98287360
C        0.85990241      -0.85990241       0.85990241
C        2.28335913      -0.81807783       0.70458748
H        2.74906332      -0.05335462       0.09003344
N        3.12505269      -1.46764351       1.59733184
C        2.59863203      -2.51819096       2.40515472
C        1.20642084      -2.55789790       2.67630656
C        0.65527481      -3.49742412       3.55853194
C        1.46674172      -4.45668872       4.14433432
C        2.81594668      -4.50819668       3.80662617
C        3.39077123      -3.57373224       2.91296425
C        4.82454488      -3.83441062       2.50697059
F        5.69966749      -3.52008132       3.50378829
F        5.05258332      -5.14892615       2.22071171
F        5.25546753      -3.15043925       1.41172585
C        4.20369361      -0.66115727       2.24586923
C        3.64559567       0.44511732       2.98737111
C        3.18561904       1.35691876       3.59853431
C        2.65689503       2.40497477       4.30100701
C        2.19691030       3.31677174       4.91216641
C        1.63882632       4.42304482       5.65366662
N        2.40147542       4.66183474       6.91775647
C        2.00289492       3.93790668       8.03254965
H        0.93738572       3.75164506       8.12536736
C        2.93663742       3.23176075       8.85298513
Br       2.31796926       2.19436088      10.25755915
C        4.36407474       3.21966383       8.47563845
O        5.18574761       2.47424844       8.99625851
C        4.76441503       4.20968162       7.44200329
C        3.78792849       4.97855016       6.75199403
C        4.25966681       6.04282662       5.94627436
C        5.64996380       6.18005839       5.71265113
C        6.57866701       5.34066816       6.31761292
C        6.13773316       4.37318997       7.20617696
C        3.37582849       7.11382882       5.35103851
F        3.99436635       8.32907858       5.27819542
F        3.00349440       6.82293035       4.07269095
F        2.22344599       7.34428918       6.03816420
H       -0.41248669      -3.48915383       3.77465327
H        1.04261060      -5.18985831       4.82685343
H        3.42846207      -5.31048044       4.22051872
H        4.87003374      -0.28763812       1.45828897
H        4.83263717      -1.26062959       2.90955541
H        0.59002977       4.21015282       5.89960555
H        1.59298544       5.31945340       5.03586156
H        6.01624541       6.97943343       5.06628490
H        7.64230164       5.46920955       6.13094821
H        6.86393301       3.74947655       7.72518309
