181
Properties=species:S:1:pos:R:3 pbc="F F F"
C        0.00000000       0.00000000       0.00000000
C        0.88142139       0.88142139      -0.88142139
C        2.08936753       0.38986028      -1.36564683
C        2.89497340       1.20217148      -2.17050051
C        2.50373975       2.50789772      -2.50413402
C        1.28481140       2.97924839      -2.00271699
C        0.47275985       2.17361602      -1.19749435
N        3.37073859       3.30097565      -3.27513720
C        3.57541796       4.69096882      -3.33005494
C        3.21462919       5.55971290      -2.30043071
C        3.39480707       6.94516793      -2.42185991
C        3.94684643       7.51591693      -3.57997511
C        4.30581129       6.63601483      -4.61201071
C        4.11582130       5.25136116      -4.49262356
C        4.13920328       8.97796991      -3.70467709
C        4.54820002       9.76278437      -2.61361259
C        4.72343384      11.14932495      -2.73279509
C        4.50755623      11.80087320      -3.94952124
C        4.09502513      11.03062979      -5.03745168
C        3.91674804       9.64491607      -4.91963172
N        4.64945832      13.19672049      -4.01740939
C        4.02670467      14.14896655      -4.84279718
C        2.74664244      13.95767343      -5.37824629
C        2.17236213      14.90401575      -6.23280846
C        2.88658457      16.04859463      -6.57121785
C        4.16481852      16.25595168      -6.06066751
C        4.72984831      15.30778866      -5.20101331
Br       2.11801712      17.32675161      -7.73168475
H        2.41836610      -0.61648727      -1.12035746
H        3.84400724       0.80873277      -2.52524006
H        0.93364279       3.97560848      -2.26093533
H       -0.47115423       2.56480077      -0.82968259
H        3.99987318       2.77148446      -3.86683230
H        2.81375609       5.17375014      -1.36801266
H        3.08351099       7.57518381      -1.59097455
H        4.74845827       7.01447838      -5.53068882
H        4.39171592       4.61416372      -5.33037970
H        4.74373233       9.30233848      -1.64746810
H        5.01854527      11.71473082      -1.85325271
H        3.93209629      11.49324045      -6.00787432
H        3.58706980       9.09580300      -5.79958979
H        5.32596713      13.58062443      -3.36838868
H        2.16671035      13.07892793      -5.10755139
H        1.17217797      14.73475912      -6.62125632
H        4.73238155      17.14297916      -6.32745898
H        5.73634629      15.47440377      -4.82558458
C       -0.88142139      -0.88142139      -0.88142139
C       -2.04413061      -0.36063620      -1.44010784
C       -2.85007004      -1.17290064      -2.24467471
C       -2.50390959      -2.50790739      -2.50395451
C       -1.33007053      -3.00822105      -1.92848520
C       -0.51801379      -2.20288304      -1.12297339
N       -3.37171437      -3.29681582      -3.27832124
C       -3.63608128      -4.67778746      -3.28257299
C       -3.35928116      -5.51410543      -2.20138622
C       -3.59613082      -6.89458900      -2.27111510
C       -4.12295593      -7.49252932      -3.42725322
C       -4.39733074      -6.64526166      -4.51124443
C       -4.15063617      -5.26609146      -4.44307840
C       -4.37526142      -8.94908608      -3.49750278
C       -4.86562806      -9.66578414      -2.39318478
C       -5.09768858     -11.04746276      -2.46040253
C       -4.85919286     -11.76169125      -3.63706656
C       -4.36608802     -11.05954719      -4.73747140
C       -4.13096868      -9.67888587      -4.67144128
N       -5.06060936     -13.15178712      -3.65119172
C       -4.44635689     -14.16604228      -4.40606923
C       -3.13715931     -14.05420294      -4.89119991
C       -2.56976698     -15.06179258      -5.67762678
C       -3.31947881     -16.18865559      -5.99826266
C       -4.62650293     -16.31772492      -5.53720986
C       -5.18479975     -15.30848702      -4.74536351
Br      -2.55993120     -17.54951264      -7.06700964
H       -2.33782792       0.66892693      -1.25333529
H       -3.76434254      -0.75536137      -2.65827617
H       -1.01324159      -4.02934993      -2.12759508
H        0.39068814      -2.61736535      -0.69665193
H       -3.95040802      -2.76788463      -3.91989728
H       -2.98192863      -5.10423454      -1.26935572
H       -3.34945929      -7.49944125      -1.40076882
H       -4.81663009      -7.04523477      -5.43176061
H       -4.36135675      -4.65590209      -5.31900050
H       -5.08163067      -9.15442007      -1.45748817
H       -5.45544033     -11.55957512      -1.57151334
H       -4.18253912     -11.57186244      -5.67880950
H       -3.73943109      -9.18453945      -5.55849204
H       -5.78095667     -13.47670878      -3.01731479
H       -2.53050935     -13.18992791      -4.63275241
H       -1.54721535     -14.95331141      -6.02766665
H       -5.22134762     -17.19062229      -5.79084978
H       -6.21297463     -15.41464523      -4.40871478
C       -0.88142139       0.88142139       0.88142139
C       -0.41718404       2.12241907       1.30527154
C       -1.22721705       2.92526917       2.11515917
C       -2.50700283       2.50265726       2.50611140
C       -2.94980665       1.24919790       2.06777222
C       -2.14653491       0.44000183       1.25733348
N       -3.26245475       3.32414271       3.36025398
C       -4.23962324       3.02945868       4.32735981
C       -4.37122024       1.77699773       4.92655484
C       -5.39316997       1.51747020       5.85119475
C       -6.32344951       2.50440701       6.21488195
C       -6.18578391       3.76120033       5.60685260
C       -5.16887746       4.01604688       4.67488169
C       -7.39909971       2.22936107       7.19338950
C       -7.17913004       1.42294494       8.32252199
C       -8.20214641       1.15845047       9.24495699
C       -9.47939700       1.69943860       9.07911506
C       -9.70924899       2.49664875       7.95720886
C       -8.68865637       2.76003157       7.03260789
N      -10.48930431       1.37449771       9.99978618
C      -11.88394908       1.28688097       9.84763836
C      -12.48845625       0.96943935       8.62466656
C      -13.88039198       0.93416036       8.49463400
C      -14.68170262       1.23315665       9.59153778
C      -14.10446727       1.56232734      10.81464310
C      -12.71118972       1.58893510      10.93852545
Br     -16.56313430       1.19432588       9.41899328
H        0.57108895       2.47328109       1.02004414
H       -0.84175710       3.88395432       2.45226867
H       -3.94589133       0.89769615       2.32659912
H       -2.52080397      -0.52437389       0.92689904
H       -3.02589878       4.30761932       3.30467184
H       -3.66141214       0.98439294       4.70971381
H       -5.45430157       0.51803699       6.27733080
H       -6.86811042       4.57140780       5.85410725
H       -5.11831249       5.00154730       4.21639956
H       -6.19840475       0.98913383       8.50600033
H       -7.98726916       0.50971127      10.08954836
H      -10.68338566       2.95247499       7.79735041
H       -8.92702485       3.38291140       6.17252633
H      -10.15541674       1.18274734      10.93681616
H      -11.87711067       0.71296111       7.76311790
H      -14.32032103       0.67086295       7.53700943
H      -14.72356523       1.80579589      11.67345857
H      -12.27509145       1.86637538      11.89486781
C        0.88142139      -0.88142139       0.88142139
C        0.30198067      -1.85861868       1.68427529
C        1.11339526      -2.66187027       2.49237985
C        2.50763837      -2.50305875       2.50507436
C        3.06560582      -1.51156337       1.68960759
C        2.26171681      -0.70408946       0.87806395
N        3.27465850      -3.30163665       3.37055628
C        4.50036736      -3.07494844       4.02112592
C        5.02172818      -1.80202214       4.25102249
C        6.27236836      -1.62821152       4.86125504
C        7.05021936      -2.72404654       5.26847257
C        6.52004745      -4.00131130       5.03247808
C        5.27328523      -4.17338817       4.41313262
C        8.36826469      -2.53827699       5.91530861
C        8.60036861      -1.49600057       6.82822779
C        9.85245083      -1.31818192       7.43492112
C       10.91528443      -2.18223197       7.16043427
C       10.69616851      -3.21681737       6.25012072
C        9.44606372      -3.39461381       5.64061830
N       12.16642965      -1.94418432       7.75297423
C       13.46805770      -2.23881628       7.31159443
C       13.79897700      -2.32994717       5.95363799
C       15.09321883      -2.66915991       5.54680760
C       16.06736850      -2.93587983       6.50314872
C       15.76002370      -2.86264147       7.85877254
C       14.46468812      -2.51608702       8.25787513
Br      17.81580461      -3.40214228       5.95850657
H       -0.77536067      -2.00120615       1.69639080
H        0.64274510      -3.40816706       3.12706792
H        4.14389834      -1.37552790       1.65076036
H        2.72454416       0.05170989       0.25049486
H        2.84239704      -4.18607105       3.60972185
H        4.45115429      -0.91640857       3.98795603
H        6.63383458      -0.61177434       5.00406043
H        7.06867325      -4.89075983       5.33419238
H        4.91652389      -5.18563456       4.23410089
H        7.80191162      -0.80400420       7.08762309
H        9.98732641      -0.48283354       8.11636885
H       11.48992147      -3.92338152       6.01990807
H        9.33470298      -4.21435862       4.93340098
H       12.12131121      -1.49419266       8.65947637
H       13.05521194      -2.10443837       5.19353936
H       15.32356230      -2.71822098       4.48641013
H       16.51302539      -3.07828786       8.61150644
H       14.23486533      -2.48164286       9.31982645
