85
Properties=species:S:1:pos:R:3 pbc="F F F"
C        0.00000000       0.00000000       0.00000000
C        0.91559898       0.91559898      -0.91559898
C        0.33685232       0.98283023      -2.32109455
C        1.10093518       1.95527331      -3.21830220
N        0.47222405       2.14704482      -4.49544917
C       -0.65284635       2.91909917      -4.66089604
O       -1.28979809       3.40008597      -3.73036073
C       -1.06475976       3.08261591      -6.12705027
N        0.13040237       3.11025725      -6.99835219
H        1.91019803       0.46095217      -0.88757049
H        0.94930601       1.89853955      -0.43508304
H       -0.71057740       1.30083987      -2.25279166
H        0.31429913      -0.01861525      -2.76825073
H        1.23736039       2.92970544      -2.73758689
H        0.99682933       1.95197405      -5.34464866
H       -1.62409010       4.01458993      -6.24130994
H       -1.70260682       2.23763391      -6.40184364
H        0.64072229       3.97540040      -6.80536790
H       -0.18347662       3.19569709      -7.96520938
C        2.41816241       1.44728317      -3.50195419
C        3.52134020       1.02184142      -3.73951274
Br       5.30508540       0.33393810      -4.12362482
C       -0.91559898      -0.91559898      -0.91559898
C       -1.85961001      -1.73393317      -0.04723393
C       -2.85872446      -2.54051479      -0.87527144
N       -3.85366759      -3.19159559      -0.06945486
C       -4.90818760      -2.51661241       0.49765116
O       -5.02300692      -1.29620107       0.47855939
C       -5.90857939      -3.43819472       1.20186769
N       -6.00005308      -4.73506877       0.49611003
H       -0.22658711      -1.53675540      -1.49537818
H       -1.45375295      -0.24057293      -1.58860272
H       -2.40633256      -1.05093979       0.61421823
H       -1.28623702      -2.39348041       0.61578281
H       -3.35803691      -1.91987350      -1.62674232
H       -3.96283661      -4.20098348      -0.12963194
H       -6.89035434      -2.95821833       1.21676291
H       -5.56511480      -3.59947691       2.22772098
H       -6.44068130      -4.56895695      -0.41185233
H       -6.65484854      -5.32841398       1.00583268
C       -2.18409161      -3.59220974      -1.59109841
C       -1.61908660      -4.47300426      -2.19060350
Br      -0.70552129      -5.89717451      -3.15995252
C       -0.91559898       0.91559898       0.91559898
C       -1.80321072       1.79257111       0.04499527
C       -2.80283335       2.60488254       0.86679481
N       -3.74880758       3.31446150       0.05144897
C       -4.80506183       2.69368774      -0.57160072
O       -4.95978842       1.47780571      -0.59694553
C       -5.75113632       3.67037880      -1.27660870
N       -5.82419125       4.94612479      -0.53130423
H       -0.22661913       1.49438729       1.53771427
H       -1.49741194       0.23752777       1.54798889
H       -2.34932630       1.14990247      -0.65617464
H       -1.18704948       2.45368301      -0.57679788
H       -3.34670861       1.97730893       1.58063519
H       -3.82728381       4.32446045       0.14170777
H       -6.74684950       3.22415001      -1.33918975
H       -5.36861611       3.85314404      -2.28488941
H       -6.29999373       4.76558170       0.35591515
H       -6.44212506       5.57712622      -1.04182143
C       -2.11885767       3.60983339       1.63870870
C       -1.54602805       4.45147973       2.28518659
Br      -0.61981099       5.81235068       3.33048665
C        0.91559898      -0.91559898       0.91559898
C        0.49060388      -0.77997127       2.37020196
C        1.24871865      -1.73699977       3.28879226
N        0.74794813      -1.73173860       4.63503132
C       -0.42286694      -2.35570548       4.99431031
O       -1.20231096      -2.85343655       4.18952301
C       -0.68570533      -2.32761151       6.50300024
N        0.58916342      -2.39997700       7.24987139
H        1.94111175      -0.57770791       0.73990103
H        0.79927633      -1.93890024       0.54475203
H       -0.58423810      -0.98643406       2.44085816
H        0.61612779       0.25711820       2.70492502
H        1.23480864      -2.76316429       2.90667980
H        1.37914626      -1.51250844       5.40179734
H       -1.31835761      -3.17681111       6.77335626
H       -1.20307857      -1.39483988       6.74510943
H        0.98738180      -3.33063852       7.10347027
H        0.37626354      -2.35467359       8.24649271
C        2.63275858      -1.35095702       3.38368417
C        3.79189202      -1.02764620       3.46315614
Br       5.66611275      -0.50487997       3.59165560
