170
Properties=species:S:1:pos:R:3 pbc="F F F"
C        1.82621320       1.82621320      -1.82621320
C        3.29014473       1.48668326      -1.57636335
C        4.24127872       2.29488085      -2.47782020
H        3.98594019       2.09376830      -3.52615727
C        5.74620638       1.91802906      -2.25337792
H        6.00214593       2.21219238      -1.22697164
N        6.62917773       2.66168173      -3.15977673
C        7.44423346       3.68549891      -2.72863986
O        7.49327573       4.07206203      -1.56316003
C        8.27238937       4.33789233      -3.84389019
N        7.98909707       5.77731931      -3.90361459
C        6.07303888       0.41694841      -2.37040988
C        5.76124210      -0.17934451      -3.73414442
Br       6.18405665      -2.08201959      -3.72651018
N        4.02158507       3.72606176      -2.25658226
C        4.25330160       4.67871349      -3.22523015
O        4.60717217       4.40697275      -4.37124822
C        3.98963541       6.11443164      -2.76272404
N        2.54933126       6.39031576      -2.81371955
H        1.58090849       2.85793582      -1.56183493
H        1.52918284       1.62842535      -2.85950877
H        3.42975580       0.41478448      -1.75476174
H        3.53737903       1.66730533      -0.52205125
H        6.35536670       2.70268171      -4.13804011
H        8.05540718       3.88265475      -4.81505318
H        9.33132022       4.16990778      -3.62356402
H        8.11398629       6.15184275      -2.95988022
H        7.00113029       5.90092760      -4.12461431
H        7.14194947       0.27618626      -2.15685834
H        5.54637729      -0.13823388      -1.58527893
H        6.36709689       0.26293653      -4.52935211
H        4.70320718      -0.10763526      -3.99520855
H        3.88882900       4.06061235      -1.30793674
H        4.53856700       6.80171744      -3.41400924
H        4.36008555       6.24683305      -1.74115570
H        2.23287720       6.26201464      -3.77749984
H        2.39473547       7.37664064      -2.60557307
C       -1.82621320      -1.82621320      -1.82621320
C       -3.12942486      -1.09682705      -2.12693942
C       -4.04787286      -1.90075946      -3.06534745
H       -3.50743997      -2.09846679      -3.99995899
C       -5.37147830      -1.13531004      -3.41082502
H       -5.93615403      -1.03007308      -2.47508283
N       -6.20595514      -1.89701687      -4.34766418
C       -7.37409729      -2.51937613      -3.96489881
O       -7.80869851      -2.50428000      -2.81551928
C       -8.08144170      -3.27416385      -5.09856633
N       -8.25130027      -4.68594447      -4.73278621
C       -5.18179409       0.28877739      -3.96738047
C       -4.39408693       0.34500613      -5.26696121
Br      -4.19765003       2.20028715      -5.83118436
N       -4.33890050      -3.20334925      -2.46197935
C       -4.62286033      -4.32787433      -3.20651058
O       -4.59990778      -4.34957363      -4.43591171
C       -4.93059471      -5.57024339      -2.36595300
N       -3.67554443      -6.17397676      -1.90384539
H       -1.98011464      -2.75293744      -1.26762716
H       -1.25183450      -2.03199069      -2.73329177
H       -2.88551975      -0.13093672      -2.58284555
H       -3.65743134      -0.88024868      -1.18905558
H       -5.73955689      -2.30066205      -5.15586958
H       -7.51569563      -3.20472782      -6.03269166
H       -9.05727896      -2.80591319      -5.26159987
H       -8.70079660      -4.71073313      -3.81417952
H       -7.32704526      -5.09703956      -4.60258738
H       -6.17368375       0.73213460      -4.13344492
H       -4.70616242       0.92165153      -3.20891145
H       -4.90552978      -0.16850678      -6.08534896
H       -3.37988017      -0.04682713      -5.16407318
H       -4.53952536      -3.24940502      -1.46844771
H       -5.49859879      -6.27843477      -2.97726013
H       -5.54976612      -5.29077922      -1.50752895
H       -3.12082686      -6.42685553      -2.72470929
H       -3.88606072      -7.05520710      -1.43568136
C       -1.82621320       1.82621320       1.82621320
C       -1.18261847       1.97120071       3.19937215
C       -1.98575568       2.90038422       4.12783987
H       -2.07049975       3.88500806       3.65035794
C       -1.30463668       3.08548982       5.52748687
H       -1.31382947       2.10531064       6.02216983
N       -2.05923470       4.01593890       6.37546259
C       -2.79901032       3.59890549       7.46045642
O       -2.90319990       2.42309401       7.80220388
C       -3.52212619       4.73383468       8.19821101
N       -4.96603301       4.46997462       8.23402333
C        0.16712888       3.53948257       5.48804348
C        0.38136432       4.88493935       4.81246697
Br       2.28288510       5.31276086       4.79867148
N       -3.34824577       2.38272992       4.27325340
C       -4.43390516       3.19139473       4.53194535
O       -4.36312413       4.41696973       4.60529927
C       -5.75532336       2.43192883       4.67953890
N       -6.28971890       2.11297156       3.35067611
H       -2.80084921       1.33328348       1.86654655
H       -1.91830771       2.78660764       1.31220161
H       -0.16945033       2.36556809       3.06428360
H       -1.07836727       0.98273815       3.66563020
H       -2.36389912       4.88582702       5.94636239
H       -3.33932327       5.69859432       7.71519752
H       -3.12223303       4.78681388       9.21574511
H       -5.09406398       3.52565166       8.60599362
H       -5.31079161       4.44129310       7.27458750
H        0.54122183       3.59627249       6.51994341
H        0.77824999       2.77017480       5.00149752
H       -0.10953446       5.70168363       5.34816744
H        0.06491860       4.88849954       3.76719953
H       -3.48314399       1.38394035       4.39029374
H       -6.45950033       3.05412938       5.24066397
H       -5.58995572       1.51074400       5.24737457
H       -6.43654925       2.98995720       2.84588524
H       -7.21697310       1.70214442       3.45783166
C        1.82621320      -1.82621320       1.82621320
C        1.17219081      -1.98850927       3.19249126
C        1.97534339      -2.91876275       4.11987363
H        2.07263651      -3.89847902       3.63475022
C        1.28391880      -3.12172241       5.51197216
H        1.28044705      -2.14579660       6.01506630
N        2.03923387      -4.05296265       6.35843966
C        2.76610072      -3.63898702       7.45328450
O        2.85723986      -2.46531529       7.80594264
C        3.49263778      -4.77401199       8.18752212
N        4.93386056      -4.49815220       8.23801821
C       -0.18349241      -3.58790749       5.45598209
C       -0.38035838      -4.92927692       4.76712346
Br      -2.27793755      -5.37318263       4.73330215
N        3.33203423      -2.39076628       4.28142859
C        4.42236871      -3.19233032       4.54254621
O        4.36152021      -4.41905117       4.60482175
C        5.73588980      -2.42290946       4.70799184
N        6.27884477      -2.08797016       3.38655164
H        2.79618851      -1.32534598       1.87914475
H        1.93095945      -2.78132454       1.30483297
H        0.16364644      -2.39033442       3.04532116
H        1.05545475      -1.00502444       3.66625641
H        2.35503010      -4.91649066       5.92456775
H        3.32227976      -5.73610210       7.69473325
H        3.08454292      -4.83916355       9.20108555
H        5.05057468      -3.55600867       8.61912590
H        5.28653811      -4.45826754       7.28186655
H       -0.56587879      -3.65677292       6.48409994
H       -0.79703926      -2.81968409       4.97077750
H        0.11296380      -5.74638305       5.30003868
H       -0.05498118      -4.92113423       3.72462743
H        3.45732258      -1.39190628       4.40814923
H        6.44058218      -3.04388420       5.26982731
H        5.55775391      -1.50809391       5.28222648
H        6.43752587      -2.95929092       2.87557490
H        7.20157825      -1.67017942       3.50519151
C       -0.00445707       0.01189536      -1.78238275
H       -0.66409135       0.67374010      -2.43557963
H        0.65740317      -0.63156657      -2.45157240
C       -0.90989263      -0.90692880      -0.91072765
C        0.90977584       0.90977584      -0.90977584
C       -0.00465871       1.77757030       0.00794375
H       -0.66225468       2.44313916      -0.64384735
H        0.64322798       2.43503045       0.67728295
C       -1.78241447       0.00034974      -0.00472694
H       -2.45427497      -0.65498947       0.64260836
H       -2.43311707       0.67328779      -0.65473579
C       -0.91132561       0.90220522       0.91563759
C       -0.01476271      -0.02253852       1.78660255
H       -0.67934791      -0.69751639       2.42135241
H        0.63392994       0.61504881       2.47327442
C        0.01484550      -1.77751727      -0.01636693
H        0.67870853      -2.42144646      -0.68295456
H       -0.62264859      -2.45592969       0.64226336
C        1.78714474       0.01002794       0.00389507
H        2.44202412       0.67113390       0.66197326
H        2.45385902      -0.65136977      -0.64189061
C        0.91606151      -0.90478549       0.90901405
