194
Properties=species:S:1:pos:R:3 pbc="F F F"
C        1.82784820       1.82784820      -1.82784820
C        3.25573912       1.31093709      -1.78904985
C        4.20732856       2.07941322      -2.72387715
H        3.80889737       2.04635542      -3.74483322
N        4.34508281       3.46300171      -2.32257501
C        3.55910274       4.47509603      -2.82271445
O        2.70753781       4.31003939      -3.68979329
C        3.87411591       5.84399314      -2.21424328
N        4.09103202       5.72015334      -0.75942442
C        5.51346156       1.46468693      -2.68821557
C        6.58998333       0.95802793      -2.65882378
C        7.98952895       0.35158510      -2.77452834
C        9.08383691      -0.10065288      -2.95780458
C       10.42219773      -0.64878351      -3.23006312
H       10.83299743      -1.06736446      -2.30676423
N       11.27257515       0.43910964      -3.68273602
C       12.61928311       0.58019666      -3.51889284
O       13.18691960       1.55097773      -4.02253472
C       13.38523692      -0.43638052      -2.66994945
N       13.21361531      -0.12523807      -1.24512960
C       10.36275905      -1.74476143      -4.30606785
C        9.55765224      -2.95407019      -3.85626731
H        1.73584557       2.83561607      -1.41607632
H        1.39820571       1.79098387      -2.83177807
H        3.26245112       0.24800448      -2.06909555
H        3.63122157       1.35339799      -0.75655553
H        4.90636138       3.70316051      -1.50868636
H        3.04093245       6.52573837      -2.40880737
H        4.77781076       6.23356487      -2.69279424
H        3.19975413       5.46756450      -0.32693993
H        4.31025111       6.64732883      -0.39157703
H       10.85752862       1.16454712      -4.25453999
H       14.44459175      -0.38135623      -2.94203578
H       13.04508788      -1.45272861      -2.88327646
H       13.49708802       0.84721725      -1.09910680
H       13.87300675      -0.68327021      -0.70403921
H        9.93563976      -1.33988073      -5.23459488
H       11.38379696      -2.05813415      -4.56068159
H        8.49514832      -2.72916680      -3.73217738
H        9.95204654      -3.39202569      -2.93569980
C        9.63011176      -3.98331781      -4.86075671
C        9.69079661      -4.84531270      -5.70201658
Br       9.78891889      -6.23908552      -7.06226263
C       -1.82784820      -1.82784820      -1.82784820
C       -1.53894903      -3.28874584      -1.52803119
C       -2.44804690      -4.26069150      -2.30188053
H       -3.49542800      -4.01866328      -2.08599471
N       -2.23353841      -4.16710726      -3.73001387
C       -2.96616632      -3.34067199      -4.55007491
O       -3.89994214      -2.64817265      -4.15925570
C       -2.52411237      -3.39353416      -6.01470580
N       -1.05090425      -3.41511742      -6.10458810
C       -2.16344299      -5.61461261      -1.88830847
C       -1.92887183      -6.73052146      -1.54744174
C       -1.78249061      -8.19666503      -1.13648676
C       -1.76229213      -9.35351447      -0.82518201
C       -1.78553805     -10.77458704      -0.44335225
H       -0.76831930     -11.09872869      -0.20534921
N       -2.27912457     -11.53893339      -1.57636285
C       -1.97104847     -12.82062106      -1.92670309
O       -2.53315035     -13.32909767      -2.89818403
C       -0.89773636     -13.57836200      -1.14270750
N        0.43592770     -13.16864027      -1.60079427
C       -2.69378102     -11.00527684       0.77499240
C       -2.18013349     -10.30087307       2.02115720
H       -1.57816410      -1.55381841      -2.85555544
H       -2.86184388      -1.55322205      -1.60590171
H       -1.66202427      -3.46714284      -0.45038404
H       -0.48442358      -3.50542994      -1.75132158
H       -1.39872075      -4.57277359      -4.14671391
H       -2.91555848      -2.51832737      -6.54159235
H       -2.93721984      -4.30063601      -6.46631401
H       -0.70096622      -2.50974738      -5.78354495
H       -0.79425071      -3.46296691      -7.09193935
H       -2.99531598     -11.12254841      -2.15875135
H       -1.04120263     -14.65051957      -1.31354910
H       -1.00498787     -13.40086381      -0.06978405
H        0.47628644     -13.30549930      -2.61419921
H        1.12850271     -13.80855546      -1.21372301
H       -3.71621292     -10.66755349       0.55341250
H       -2.77247696     -12.08307012       0.96920269
H       -2.22218779      -9.21190016       1.93592905
H       -1.16488002     -10.61169846       2.28085782
C       -3.01125367     -10.64263709       3.14634011
C       -3.70731683     -10.92886446       4.08868080
Br      -4.83279209     -11.39166990       5.61236599
C       -1.82784820       1.82784820       1.82784820
C       -1.82736271       3.24571131       1.28265204
C       -2.76575073       4.19400144       2.05086675
H       -3.77906924       3.77525201       2.04576475
N       -2.34047382       4.36687975       3.42330597
C       -2.80521782       3.59152798       4.46016742
O       -3.65831077       2.72019290       4.32886683
C       -2.17664545       3.94532746       5.81037943
N       -0.72908330       4.18794725       5.65357922
C       -2.76788928       5.48815634       1.41031845
C       -2.76965252       6.55480570       0.88237682
C       -2.92478730       7.93956322       0.25129187
C       -3.13843257       9.02094123      -0.21838520
C       -3.44771818      10.34265298      -0.78689382
H       -2.54103057      10.76293061      -1.23156397
N       -3.89593370      11.20545149       0.29303562
C       -3.75607255      12.55761482       0.40468524
O       -4.25191388      13.13447356       1.37404460
C       -2.94234927      13.31962968      -0.64317308
N       -1.50864053      13.18188910      -0.35702279
C       -4.54340598      10.24065714      -1.85999766
C       -4.10131455       9.42065271      -3.06211790
H       -1.39485239       1.76382192       2.82886364
H       -2.82360313       1.37815459       1.81920993
H       -2.12806543       3.22594461       0.22554110
H       -0.80187361       3.64193092       1.29737057
H       -1.53334675       4.94849423       3.63636726
H       -2.34140934       3.12218261       6.51188625
H       -2.66533908       4.84709759       6.19173320
H       -0.28402535       3.30040667       5.40982654
H       -0.34771995       4.43257518       6.56886184
H       -4.44522127      10.79382539       1.03756907
H       -3.23423251      14.37438524      -0.60334645
H       -3.16858874      12.95535241      -1.64830542
H       -1.34940947      13.48733659       0.60666600
H       -0.99164207      13.84048377      -0.93835009
H       -5.45526261       9.80369353      -1.42860223
H       -4.82421557      11.25015738      -2.18802856
H       -3.95187500       8.36541769      -2.81913379
H       -3.19740859       9.82409472      -3.52578265
C       -5.12683012       9.45321341      -4.07249288
C       -5.98569942       9.48048299      -4.91868192
Br      -7.37441843       9.52457560      -6.28689804
C        1.82784820      -1.82784820       1.82784820
C        2.80114570      -0.95413934       2.60044103
C        3.67404663      -1.74444659       3.59212571
H        3.02271636      -2.30092585       4.27644379
N        4.54033038      -2.68116851       2.90916065
C        4.19532435      -3.99120497       2.67038391
O        3.14904582      -4.50067103       3.05765365
C        5.26488353      -4.76854006       1.89892875
N        5.82057897      -3.93592648       0.81410433
C        4.49958408      -0.82611873       4.34066125
C        5.17999700      -0.06922974       4.95760829
C        6.04291962       0.80063253       5.87335531
C        6.70021476       1.41997808       6.66075193
C        7.49213980       2.15130860       7.66264613
H        7.91865497       3.04574431       7.19948654
N        8.56864045       1.28333567       8.10911603
C        9.81138544       1.63811819       8.54510536
O       10.58210550       0.76149115       8.93981769
C       10.24070557       3.10532616       8.48342645
N       10.66025955       3.44438740       7.11763469
C        6.62338860       2.56169478       8.86237164
C        5.52855615       3.54360813       8.47490135
H        2.33279626      -2.51244152       1.14230018
H        1.15362970      -2.38258750       2.48475045
H        2.23840240      -0.18831813       3.15283061
H        3.44093075      -0.40706563       1.89317872
H        5.36164444      -2.34486346       2.41170035
H        4.81974996      -5.67580019       1.47992805
H        6.05946867      -5.04669912       2.59800206
H        5.08536021      -3.79006164       0.11883672
H        6.53682465      -4.48092278       0.33140954
H        8.38269337       0.29076551       8.18468787
H       11.07412694       3.24819132       9.17933568
H        9.42797146       3.75995328       8.80761754
H       11.38548805       2.77907741       6.83700143
H       11.11858970       4.35474883       7.12993488
H        6.17537735       1.67153813       9.32651468
H        7.26154758       3.01028007       9.63507689
H        4.77659193       3.09735798       7.81892496
H        5.93164968       4.44819858       8.01226956
C        4.82209658       3.96968882       9.65514290
C        4.23043669       4.32653139      10.64359520
Br       3.27377268       4.90351565      12.24183897
C       -0.00445707       0.01189536      -1.78238275
H       -0.66409135       0.67374010      -2.43557963
H        0.65740317      -0.63156657      -2.45157240
C       -0.90989263      -0.90692880      -0.91072765
C        0.90977584       0.90977584      -0.90977584
C       -0.00465871       1.77757030       0.00794375
H       -0.66225468       2.44313916      -0.64384735
H        0.64322798       2.43503045       0.67728295
C       -1.78241447       0.00034974      -0.00472694
H       -2.45427497      -0.65498947       0.64260836
H       -2.43311707       0.67328779      -0.65473579
C       -0.91132561       0.90220522       0.91563759
C       -0.01476271      -0.02253852       1.78660255
H       -0.67934791      -0.69751639       2.42135241
H        0.63392994       0.61504881       2.47327442
C        0.01484550      -1.77751727      -0.01636693
H        0.67870853      -2.42144646      -0.68295456
H       -0.62264859      -2.45592969       0.64226336
C        1.78714474       0.01002794       0.00389507
H        2.44202412       0.67113390       0.66197326
H        2.45385902      -0.65136977      -0.64189061
C        0.91606151      -0.90478549       0.90901405
