165
Properties=species:S:1:pos:R:3 pbc="F F F"
C        0.00000000       0.00000000       0.00000000
C        0.91794417       0.91794417      -0.91794417
C        2.34583509       0.40103307      -0.87914583
C        3.29742453       1.16950920      -1.81397312
H        2.89899334       1.13645139      -2.83492919
N        3.43517879       2.55309769      -1.41267099
C        2.64919872       3.56519201      -1.91281042
O        1.79763379       3.40013537      -2.77988927
C        2.96421188       4.93408912      -1.30433926
N        3.18112800       4.81024931       0.15047961
C        4.60355754       0.55478291      -1.77831155
C        5.68007930       0.04812390      -1.74891976
C        7.07962493      -0.55831892      -1.86462431
C        8.17393288      -1.01055690      -2.04790056
C        9.51229370      -1.55868753      -2.32015909
H        9.92309341      -1.97726848      -1.39686021
N       10.36267113      -0.47079438      -2.77283199
C       11.70937908      -0.32970736      -2.60898882
O       12.27701558       0.64107371      -3.11263069
C       12.47533290      -1.34628454      -1.76004543
N       12.30371128      -1.03514210      -0.33522558
C        9.45285502      -2.65466546      -3.39616382
C        8.64774821      -3.86397421      -2.94636329
Br       8.74583598      -5.25725696      -4.30613106
H        0.82594154       1.92571205      -0.50617229
H        0.48830168       0.88107984      -1.92187405
H        2.35254709      -0.66189954      -1.15919152
H        2.72131755       0.44349397       0.15334849
H        3.99645736       2.79325648      -0.59878233
H        2.13102843       5.61583435      -1.49890335
H        3.86790673       5.32366084      -1.78289021
H        2.28985010       4.55766048       0.58296410
H        3.40034708       5.73742481       0.51832699
H        9.94762459       0.25464310      -3.34463596
H       13.53468773      -1.29126025      -2.03213175
H       12.13518385      -2.36263264      -1.97337244
H       12.58718400      -0.06268678      -0.18920277
H       12.96310273      -1.59317424       0.20586481
H        9.02573573      -2.24978475      -4.32469085
H       10.47389293      -2.96803818      -3.65077756
H        7.58524430      -3.63907082      -2.82227335
H        9.04214252      -4.30192971      -2.02579578
C       -0.91794417      -0.91794417      -0.91794417
C       -1.87650762      -0.04258731      -1.70691905
C       -2.74761762      -0.83396305      -2.69932618
H       -2.09525027      -1.40228749      -3.37283616
N       -3.62825885      -1.75682890      -2.01585972
C       -3.29710782      -3.06768395      -1.76240938
O       -2.25203532      -3.58984286      -2.13578024
C       -4.38036754      -3.82858328      -0.99368944
N       -4.93818782      -2.98141322       0.07870333
C       -3.55824700       0.08491506      -3.46332005
C       -4.22637261       0.84225757      -4.09300792
C       -5.07333583       1.71151031      -5.02410480
C       -5.71806483       2.32959159      -5.82280331
C       -6.49451124       3.05892428      -6.83817830
H       -6.91710027       3.96120915      -6.38679401
N       -7.57473027       2.19656739      -7.28654585
C       -8.81034175       2.55843585      -7.73675464
O       -9.58534040       1.68517876      -8.13055833
C       -9.22705736       4.02988317      -7.69191960
N       -9.65564900       4.38484553      -6.33299129
C       -5.61152931       3.45085432      -8.03367840
C       -4.51143850       4.42645271      -7.64515150
Br      -3.53587323       4.98043099      -9.23926784
H       -1.43504716      -1.59188008      -0.23089865
H       -0.24291778      -1.48448650      -1.56385129
H       -1.30206769       0.71324837      -2.26101975
H       -2.51761806       0.51643515      -1.01028012
H       -4.45090917      -1.40882555      -1.52876145
H       -3.94709298      -4.73596990      -0.56270324
H       -5.17118209      -4.10592937      -1.69734633
H       -4.20788395      -2.83585886       0.77919632
H       -5.66352620      -3.51570440       0.55978571
H       -7.39700200       1.20175258      -7.35165424
H      -10.05296909       4.17390036      -8.39649050
H       -8.40566256       4.67435855      -8.01461964
H      -10.38925467       3.72852333      -6.05296865
H      -10.10569511       5.29908609      -6.35745467
H       -5.16739894       2.55264891      -8.48589180
H       -6.23878044       3.89815066      -8.81600253
H       -3.76933593       3.97943935      -6.97855025
H       -4.91051227       5.33867925      -7.19417557
C       -0.91794417       0.91794417       0.91794417
C       -0.10921173       1.41142064       2.10538162
C       -0.88548306       2.38797039       3.00745340
H       -1.23976218       3.22979539       2.40081636
N       -2.02618079       1.74798634       3.62678034
C       -3.28775583       1.76084569       3.07859963
O       -3.57481316       2.35695359       2.04589167
C       -4.31528884       0.98280804       3.90454339
N       -3.72905194      -0.28087533       4.39272110
C       -0.01358575       2.87063957       4.05242667
C        0.70503490       3.26845834       4.91369953
C        1.54591243       3.91734199       6.01450077
C        2.15599462       4.50623142       6.86103973
C        2.88353053       5.27013501       7.88716078
H        3.63255470       4.62285266       8.35238717
N        1.92768103       5.69770751       8.89468226
C        2.14230311       5.90543188      10.22553176
O        1.21801506       6.32419731      10.92453772
C        3.50501150       5.56307056      10.83103473
N        3.59156995       4.11800725      11.07735746
C        3.57772807       6.49720056       7.27488091
C        4.65578679       6.11235751       6.27356657
Br       5.57912676       7.71520611       5.65863074
H       -1.75667255       0.28467560       1.21647773
H       -1.27064447       1.73569100       0.28492010
H        0.80026426       1.90950206       1.74060127
H        0.23458542       0.55010151       2.69594694
H       -1.88879585       1.10036662       4.39933370
H       -5.19099470       0.77068821       3.28408321
H       -4.61683933       1.60465817       4.75296029
H       -3.56564861      -0.88658044       3.58547832
H       -4.43659105      -0.76493381       4.94778765
H        0.99426722       5.94860297       8.59256791
H        3.60936456       6.11209775      11.77282604
H        4.31368490       5.88789767      10.17171089
H        2.79163274       3.84907549      11.65625724
H        4.41435798       3.92964805      11.64877361
H        2.83632146       7.14764013       6.78932317
H        4.02158351       7.10043170       8.07778412
H        4.24715178       5.63816383       5.37743478
H        5.41841707       5.46714036       6.71728530
C        0.91794417      -0.91794417       0.91794417
C        0.04641554      -1.90759196       1.67200649
C        0.85359312      -2.90700940       2.52030434
H        1.56676678      -3.43078533       1.87282181
N        1.58583362      -2.23981534       3.57529851
C        2.88425181      -1.80767979       3.43526956
O        3.55789069      -1.99259083       2.42717690
C        3.42440284      -1.09851270       4.67972472
N        2.39785783      -0.19984845       5.24319143
C       -0.04790734      -3.85874140       3.12581793
C       -0.79092718      -4.64316393       3.62488622
C       -1.62708893      -5.75881850       4.25420076
C       -2.20963447      -6.69208988       4.72882112
C       -2.88987018      -7.86719271       5.29644274
H       -3.88070294      -7.57079268       5.65259539
N       -2.10138993      -8.34754995       6.41854872
C       -2.53741131      -8.98105630       7.54501555
O       -1.71178440      -9.36930851       8.37319586
C       -4.03978547      -9.14665292       7.78222633
N       -4.60151818      -7.89631548       8.30899747
C       -3.03577618      -8.98187110       4.24825846
C       -3.92656757      -8.57039414       3.08631072
Br      -4.17390804     -10.08465931       1.88395881
H        1.44346812      -0.22997527       1.58438249
H        1.62845680      -1.41192443       0.25087434
H       -0.56986841      -2.46628093       0.95342655
H       -0.65917271      -1.35862097       2.31201476
H        1.09427420      -1.89682255       4.39739942
H        4.31420409      -0.52244885       4.40911319
H        3.69799959      -1.85888346       5.41757474
H        2.24813453       0.56430625       4.58071821
H        2.78809622       0.24448961       6.07583828
H       -1.09269018      -8.28256435       6.35702948
H       -4.18562372      -9.95777797       8.50340498
H       -4.54759335      -9.43496760       6.85854941
H       -4.06733740      -7.63816014       9.14287725
H       -5.54929525      -8.07405269       8.63930623
H       -2.04653719      -9.27691296       3.87026607
H       -3.44991115      -9.87838510       4.72815836
H       -3.48622385      -7.77413551       2.48053517
H       -4.92461578      -8.27261516       3.41800920
