162
Properties=species:S:1:pos:R:3 pbc="F F F"
N       12.25874071      -0.98306432       0.74135021
C       11.93340324      -0.76748391       2.16809429
C       10.65914315       0.06988526       2.30734550
O       10.46015792       0.81289847       3.26083707
N        9.75732496      -0.15775374       1.29255720
C        8.57067411       0.63461751       1.07019072
H        7.98992751       0.09737180       0.31021591
C        7.70047008       0.91185741       2.30579822
C        6.37557763       1.41719008       1.90926491
C        5.35406331       1.85328689       1.45587590
C        4.14512074       2.39448260       0.69951662
C        3.27036898       2.74930869      -0.03955414
C        2.26330894       3.08429915      -1.05539078
C        1.83330806       1.83330806      -1.83330806
H        2.69206928       1.21254309      -2.11466709
N        1.06601722       2.12034672      -3.01455053
C        1.64782856       2.61392574      -4.15802951
O        2.80754364       3.00661919      -4.21654298
C        0.68252903       2.67571575      -5.34408869
N       -0.27832175       1.55413728      -5.28333155
Br       9.10058500       2.30302029       0.18539294
H       13.07563965      -1.59418613       0.69458813
H       12.57470994      -0.08975696       0.35469331
H       12.76040381      -0.24741214       2.66003696
H       11.76225955      -1.73028316       2.65829525
H       10.16867600      -0.63417915       0.49254353
H        8.16901497       1.63702507       2.97912359
H        7.56748357      -0.01600309       2.87415094
H        2.70483992       3.81958066      -1.73939997
H        1.40140139       3.57801976      -0.59193133
H        0.17787802       1.64403600      -3.15220430
H        1.25342252       2.62214667      -6.27547682
H        0.14533402       3.62765717      -5.29864428
H        0.23223895       0.68915890      -5.47417749
H       -0.93365951       1.65458984      -6.05966548
N        4.84465665      -5.44611395      -9.93286888
C        5.23919479      -4.04440447     -10.19261535
C        4.22727528      -3.07808633      -9.57087186
O        3.99945823      -1.97019129     -10.04148625
N        3.66811566      -3.56433941      -8.41079026
C        2.54974246      -2.95282165      -7.73202173
H        2.46375058      -3.47159172      -6.76924226
C        2.63963488      -1.43492227      -7.51124188
C        1.63603138      -0.98907994      -6.53045424
C        0.75421508      -0.75390458      -5.75178479
C       -0.41359242      -0.65043142      -4.77606289
C       -1.31828547      -0.74575575      -3.99519059
C       -2.37642154      -1.01447025      -3.01210708
C       -1.83330806      -1.83330806      -1.83330806
H       -1.19271366      -2.65708618      -2.16947962
N       -2.85747415      -2.36645850      -0.97698182
C       -3.63026097      -3.44084863      -1.34867420
O       -3.63549938      -3.91701498      -2.47819145
C       -4.52921744      -3.95247940      -0.22063663
N       -3.85836969      -3.78680841       1.08603102
Br       0.90814308      -3.43544595      -8.69090948
H        5.57502967      -6.05262973     -10.30926534
H        4.01634311      -5.64742100     -10.49918177
H        5.28729021      -3.86904365     -11.27120128
H        6.21735715      -3.84615715      -9.74488114
H        3.81065488      -4.56473293      -8.28787527
H        2.49524138      -0.87886454      -8.44329329
H        3.63701948      -1.17928123      -7.13506779
H       -3.17577199      -1.56903175      -3.51901680
H       -2.82687955      -0.07623876      -2.66823417
H       -2.79359010      -2.20592302       0.02539480
H       -4.75147794      -5.00999183      -0.38957623
H       -5.45906470      -3.37630584      -0.23626493
H       -3.07707616      -4.44500604       1.12650686
H       -4.50363289      -4.09262635       1.81566343
N       -8.64974360       7.07412826      -5.18954568
C       -7.46868412       7.50049648      -5.97135557
C       -6.19348904       7.36327006      -5.13507619
O       -5.21929954       8.08852526      -5.29560549
N       -6.24645389       6.31042402      -4.24986390
C       -5.27110584       6.07520287      -3.21120780
H       -5.49984989       5.08218187      -2.80494836
C       -3.79685345       6.14769476      -3.63801894
C       -2.92445316       5.56433184      -2.60528219
C       -2.32718073       5.09900207      -1.67470850
C       -1.74708105       4.49356807      -0.40056239
C       -1.45735745       3.96572869       0.63614567
C       -1.24950383       3.25084058       1.90265445
C       -1.83330806       1.83330806       1.83330806
H       -2.82659331       1.82334804       1.36933811
N       -1.91468817       1.17670767       3.10951862
C       -2.87082835       1.50955730       4.03939816
O       -3.60753643       2.48411530       3.93905407
C       -2.88784609       0.56835531       5.24613208
N       -2.53326534      -0.80531238       4.83119412
Br      -5.64255022       7.30316844      -1.72750631
H       -9.46569546       7.12294130      -5.80177137
H       -8.81820135       7.78022925      -4.46817094
H       -7.58670318       8.54389164      -6.27764010
H       -7.36331143       6.86786489      -6.85749517
H       -7.19026347       5.95736991      -4.10568006
H       -3.47883929       7.17770558      -3.82962842
H       -3.65923013       5.58938330      -4.57128389
H       -1.74288325       3.82256918       2.69836812
H       -0.18408246       3.22810132       2.15916870
H       -1.52069397       0.24426371       3.20916063
H       -3.88680013       0.57275514       5.69149073
H       -2.16031534       0.93509323       5.97622690
H       -3.30230713      -1.17422124       4.26748944
H       -2.50772429      -1.39283730       5.66570883
N       -4.22069012     -10.92174722       3.83326908
C       -5.32950088     -10.04949592       4.27782999
C       -4.81288773      -8.64277806       4.59179258
O       -5.33801395      -7.92010841       5.43012484
N       -3.75608310      -8.27137717       3.79171995
C       -2.95622466      -7.08781819       4.00350738
H       -2.32460798      -6.98975906       3.11193233
C       -3.72966778      -5.78372944       4.25246761
C       -2.84411602      -4.61585034       4.11176848
C       -2.01246124      -3.75768362       4.00625191
C       -0.82285803      -2.81650412       3.84644064
C        0.19549155      -2.21575765       3.64798262
C        1.48799642      -1.60410788       3.31089457
C        1.83330806      -1.83330806       1.83330806
H        1.63167066      -2.86515008       1.52245872
N        3.19320716      -1.50906021       1.49864709
C        4.24368596      -2.32084605       1.85525180
O        4.13815823      -3.27481824       2.61772933
C        5.57652128      -1.88043093       1.24538126
N        5.35960431      -1.29316456      -0.09362179
Br      -1.69013200      -7.45159313       5.45675122
H       -4.61718929     -11.82727564       3.57677904
H       -3.62890702     -11.11320054       4.64596615
H       -5.79249928     -10.47053283       5.17492118
H       -6.07705232      -9.96723987       3.48349360
H       -3.32505583      -9.05746525       3.30954390
H       -4.18545983      -5.76459123       5.24778506
H       -4.54403117      -5.69761212       3.52374859
H        2.25413404      -2.05838105       3.95130546
H        1.48115143      -0.53548931       3.55471175
H        3.37214082      -0.89150739       0.71047011
H        6.23898301      -2.74701286       1.16505014
H        6.02683864      -1.13608780       1.90870902
H        5.07801987      -2.04464065      -0.72708519
H        6.26025131      -0.96827102      -0.44792652
C       -0.00445707       0.01189536      -1.78238275
H       -0.66409135       0.67374010      -2.43557963
H        0.65740317      -0.63156657      -2.45157240
C       -0.90989263      -0.90692880      -0.91072765
C        0.90977584       0.90977584      -0.90977584
C       -0.00465871       1.77757030       0.00794375
H       -0.66225468       2.44313916      -0.64384735
H        0.64322798       2.43503045       0.67728295
C       -1.78241447       0.00034974      -0.00472694
H       -2.45427497      -0.65498947       0.64260836
H       -2.43311707       0.67328779      -0.65473579
C       -0.91132561       0.90220522       0.91563759
C       -0.01476271      -0.02253852       1.78660255
H       -0.67934791      -0.69751639       2.42135241
H        0.63392994       0.61504881       2.47327442
C        0.01484550      -1.77751727      -0.01636693
H        0.67870853      -2.42144646      -0.68295456
H       -0.62264859      -2.45592969       0.64226336
C        1.78714474       0.01002794       0.00389507
H        2.44202412       0.67113390       0.66197326
H        2.45385902      -0.65136977      -0.64189061
C        0.91606151      -0.90478549       0.90901405
