162
Properties=species:S:1:pos:R:3 pbc="F F F"
C        1.82608481       1.82608481      -1.82608481
C        1.32234057       1.88874067      -3.27233365
H        0.27621944       2.21624344      -3.28099617
N        1.43454064       0.60070518      -3.93867977
C        0.33193725      -0.15479402      -4.26457072
O       -0.82491895       0.20499517      -4.05840841
C        0.65267503      -1.49406013      -4.93525887
N        0.20250862      -1.46843928      -6.33034302
C        2.13798915       2.86085173      -4.02486276
C        2.82917315       3.64249011      -4.61528940
C        3.75568348       4.61918934      -5.34315747
C        4.51939043       5.35032001      -5.88967453
C        5.44599276       6.23737709      -6.55274959
H        6.21892355       6.53619307      -5.83323518
N        6.10663295       5.47117427      -7.59086355
C        7.36736787       5.73739343      -8.05867016
O        8.07139728       6.64366196      -7.62610389
C        7.80441417       4.80936606      -9.20117674
N        6.96176631       3.59375754      -9.25545103
C        4.80232298       7.52152855      -7.07583485
Br       3.45839849       7.18459812      -8.45823618
H        2.83616751       1.40782908      -1.75847744
H        1.82312761       2.81376450      -1.35349226
H        2.34298652       0.30603265      -4.27121801
H        0.13659383      -2.28172741      -4.37677104
H        1.72622159      -1.70172842      -4.90045210
H       -0.77229163      -1.15400551      -6.33629394
H        0.18637832      -2.42076040      -6.69177827
H        5.58326550       4.77804505      -8.12355876
H        8.84835270       4.52159485      -9.04608092
H        7.70887851       5.35936360     -10.14157975
H        7.17399094       3.02414006      -8.43365954
H        7.25706938       3.03433727     -10.05654521
H        5.54086517       8.17879327      -7.54483349
H        4.28672665       8.07143882      -6.28245373
C       -1.82608481      -1.82608481      -1.82608481
C       -2.69429904      -2.78510456      -1.00401128
H       -3.28295809      -2.21320108      -0.27729989
N       -1.89057059      -3.77672803      -0.30662697
C       -1.73628849      -3.76583786       1.06041240
O       -2.28589194      -2.95365372       1.80106103
C       -0.82976584      -4.87236791       1.60825997
N       -1.62752096      -5.82427270       2.38738130
C       -3.61174124      -3.50148330      -1.91047910
C       -4.33217167      -4.08152354      -2.67325745
C       -5.20916165      -4.82697797      -3.68189068
C       -5.84557857      -5.41870004      -4.49510635
C       -6.61771785      -6.13663018      -5.48177141
H       -6.30663625      -5.80208542      -6.47963013
N       -6.25879526      -7.53682553      -5.37304997
C       -6.32245914      -8.42975277      -6.41121955
O       -6.67210265      -8.12304098      -7.54601951
C       -5.94268575      -9.86233979      -6.00993144
N       -5.20123022      -9.88067724      -4.72906742
C       -8.12394498      -5.89621397      -5.37952743
Br      -8.87809603      -6.53351735      -3.68961940
H       -1.14507195      -2.35904296      -2.49835913
H       -2.43538838      -1.13605765      -2.41893834
H       -1.52743133      -4.56084938      -0.83195647
H       -0.06699192      -4.40148904       2.23684351
H       -0.32114930      -5.39944104       0.79564506
H       -2.18281467      -5.28683525       3.05965311
H       -1.00226004      -6.40203094       2.94689478
H       -6.07988296      -7.94719303      -4.45779333
H       -5.32045662     -10.29895674      -6.79661511
H       -6.86426231     -10.44153167      -5.90402788
H       -4.28321708      -9.46027160      -4.88830186
H       -5.01460712     -10.85291979      -4.48042497
H       -8.67034733      -6.43344800      -6.16069660
H       -8.37160251      -4.83177546      -5.43724123
C       -1.82608481       1.82608481       1.82608481
C       -1.43500794       1.74265396       3.30575298
H       -0.37168076       1.98492229       3.41685601
N       -1.69354472       0.42219335       3.85818752
C       -0.67844352      -0.43992883       4.20319925
O        0.51431958      -0.15858477       4.11138898
C       -1.14839847      -1.79515533       4.74063063
N       -0.80925495      -1.90742381       6.16258122
C       -2.23421005       2.71847602       4.07101757
C       -2.91080587       3.50696575       4.66918104
C       -3.81793891       4.49791844       5.40217295
C       -4.56686293       5.24514258       5.94737945
C       -5.47552978       6.15172679       6.60886286
H       -6.16520363       6.56258805       5.86056012
N       -6.27048950       5.36619066       7.53199060
C       -7.54136917       5.69626256       7.92579972
O       -8.14074440       6.68458129       7.51583744
C       -8.13413846       4.72452531       8.95629320
N       -7.38970032       3.44541074       8.97586381
C       -4.78292369       7.33921802       7.27754467
Br      -3.58077114       6.79678839       8.72367326
H       -2.85556936       1.49505942       1.65184526
H       -1.71346429       2.84238606       1.43453402
H       -2.64456532       0.17669667       4.09897520
H       -0.64885212      -2.57813614       4.16092148
H       -2.22814985      -1.91420453       4.61099997
H        0.18242396      -1.67231210       6.26473285
H       -0.89152324      -2.88194163       6.44781459
H       -5.84303214       4.59671921       8.04511797
H       -9.18081120       4.53230732       8.70290995
H       -8.07322183       5.19490740       9.94169262
H       -7.57743918       2.95606154       8.09828982
H       -7.78757242       2.85393009       9.70644936
H       -5.50611070       8.01669338       7.74168785
H       -4.16734701       7.90326561       6.57000659
C        1.82608481      -1.82608481       1.82608481
C        2.82553813      -2.65064285       1.00723390
H        3.41876983      -1.98130365       0.37338558
N        2.15626084      -3.64019152       0.17747323
C        2.10234030      -3.53236938      -1.19299573
O        2.63872891      -2.62591674      -1.82616103
C        1.32900077      -4.65554482      -1.89067181
N        2.25469122      -5.48160360      -2.67188246
C        3.72785435      -3.36732806       1.92852122
C        4.43405315      -3.95154489       2.70135461
C        5.29096005      -4.70819948       3.71887077
C        5.91086094      -5.31419169       4.53433234
C        6.66296167      -6.04943693       5.52372084
H        6.25396259      -5.81874378       6.51564544
N        6.42506209      -7.45916797       5.28444070
C        6.48291753      -8.42446016       6.25605377
O        6.72293470      -8.18379956       7.43442887
C        6.24832607      -9.84474194       5.72188896
N        5.60665825      -9.81589513       4.38842149
C        8.14883271      -5.69178904       5.55906463
Br       9.07308591      -6.13611994       3.89202694
H        1.14194856      -2.45917065       2.40135482
H        2.33364263      -1.14235402       2.51438772
H        1.81882371      -4.48800069       0.61341279
H        0.57950752      -4.19359128      -2.54146135
H        0.80548711      -5.28124846      -1.16179029
H        2.81348855      -4.85329093      -3.25678267
H        1.71992701      -6.05753489      -3.32006571
H        6.34687923      -7.80774424       4.33024585
H        5.60660002     -10.38680142       6.42262703
H        7.21817669     -10.34452367       5.64712150
H        4.64901795      -9.47793509       4.50483750
H        5.51640968     -10.77644534       4.05509686
H        8.67727992      -6.24767853       6.33953347
H        8.30646511      -4.61997473       5.71417937
C       -0.00445707       0.01189536      -1.78238275
H       -0.66409135       0.67374010      -2.43557963
H        0.65740317      -0.63156657      -2.45157240
C       -0.90989263      -0.90692880      -0.91072765
C        0.90977584       0.90977584      -0.90977584
C       -0.00465871       1.77757030       0.00794375
H       -0.66225468       2.44313916      -0.64384735
H        0.64322798       2.43503045       0.67728295
C       -1.78241447       0.00034974      -0.00472694
H       -2.45427497      -0.65498947       0.64260836
H       -2.43311707       0.67328779      -0.65473579
C       -0.91132561       0.90220522       0.91563759
C       -0.01476271      -0.02253852       1.78660255
H       -0.67934791      -0.69751639       2.42135241
H        0.63392994       0.61504881       2.47327442
C        0.01484550      -1.77751727      -0.01636693
H        0.67870853      -2.42144646      -0.68295456
H       -0.62264859      -2.45592969       0.64226336
C        1.78714474       0.01002794       0.00389507
H        2.44202412       0.67113390       0.66197326
H        2.45385902      -0.65136977      -0.64189061
C        0.91606151      -0.90478549       0.90901405
