170
Properties=species:S:1:pos:R:3 pbc="F F F"
C        1.82608481       1.82608481      -1.82608481
C        1.32234057       1.88874067      -3.27233365
H        0.27621944       2.21624344      -3.28099617
N        1.43454064       0.60070518      -3.93867977
C        0.33193725      -0.15479402      -4.26457072
O       -0.82491895       0.20499517      -4.05840841
C        0.65267503      -1.49406013      -4.93525887
N        0.20250862      -1.46843928      -6.33034302
C        2.13798915       2.86085173      -4.02486276
C        2.82917315       3.64249011      -4.61528940
C        3.75568348       4.61918934      -5.34315747
C        4.51939043       5.35032001      -5.88967453
C        5.44599276       6.23737709      -6.55274959
H        6.21892355       6.53619307      -5.83323518
N        6.10663295       5.47117427      -7.59086355
C        7.36736787       5.73739343      -8.05867016
O        8.07139728       6.64366196      -7.62610389
C        7.80441417       4.80936606      -9.20117674
N        6.96176631       3.59375754      -9.25545103
C        4.80232298       7.52152855      -7.07583485
H        2.83616751       1.40782908      -1.75847744
H        1.82312761       2.81376450      -1.35349226
H        2.34298652       0.30603265      -4.27121801
H        0.13659383      -2.28172741      -4.37677104
H        1.72622159      -1.70172842      -4.90045210
H       -0.77229163      -1.15400551      -6.33629394
H        0.18637832      -2.42076040      -6.69177827
H        5.58326550       4.77804505      -8.12355876
H        8.84835270       4.52159485      -9.04608092
H        7.70887851       5.35936360     -10.14157975
H        7.17399094       3.02414006      -8.43365954
H        7.25706938       3.03433727     -10.05654521
H        5.54086517       8.17879327      -7.54483349
H        4.28672665       8.07143882      -6.28245373
C        3.81354465       7.27363553      -8.09292210
C        2.98544281       7.06602512      -8.94473268
Br       1.64647216       6.73033665     -10.32203833
C       -1.82608481      -1.82608481      -1.82608481
C       -2.80632099      -2.67165742      -1.00543647
H       -3.39979695      -2.01665419      -0.35700792
N       -2.11601949      -3.66283506      -0.19507104
C       -2.04734509      -3.57021876       1.17584991
O       -2.58673090      -2.67746232       1.82570859
C       -1.25299538      -4.69226499       1.85138659
N       -2.15990093      -5.53804212       2.63353068
C       -3.71100176      -3.38814865      -1.92455323
C       -4.41938698      -3.97161268      -2.69595299
C       -5.27932699      -4.72642667      -3.71227663
C       -5.90167242      -5.33016315      -4.52754939
C       -6.65673904      -6.06267135      -5.51670904
H       -6.26204309      -5.81578153      -6.51052719
N       -6.39980267      -7.47219616      -5.29667194
C       -6.45785429      -8.42681732      -6.27875984
O       -6.71437971      -8.17538889      -7.45139453
C       -6.20065979      -9.85033431      -5.76396287
N       -5.54383780      -9.82939118      -4.43774589
C       -8.14695129      -5.72201732      -5.53071777
H       -1.14145095      -2.44445411      -2.41656898
H       -2.34950612      -1.14042809      -2.50045016
H       -1.77393191      -4.50155634      -0.64474893
H       -0.50133547      -4.22913322       2.49883123
H       -0.73084172      -5.30335569       1.10925212
H       -2.71904519      -4.92309267       3.23214106
H       -1.61098992      -6.11513298       3.26872671
H       -6.30646214      -7.83082779      -4.34757938
H       -5.56094659     -10.37673641      -6.47834547
H       -7.16373680     -10.36223877      -5.68384628
H       -4.59158777      -9.47894839      -4.56125438
H       -5.43861962     -10.79260583      -4.11672642
H       -8.67802508      -6.27499371      -6.31147313
H       -8.31874733      -4.65039786      -5.67147401
C       -8.80877073      -6.07098603      -4.30034552
C       -9.36304451      -6.36324732      -3.26990877
Br     -10.25925834      -6.83580912      -1.60377968
C       -1.82608481       1.82608481       1.82608481
C       -1.14505903       2.18756003       3.15079582
H       -0.17354666       2.65274847       2.94716392
N       -0.95746363       1.01947815       3.99698381
C        0.28584470       0.48440517       4.24315347
O        1.33094966       0.96204107       3.80739321
C        0.27836312      -0.76169996       5.13393686
N        0.90590430      -0.45195989       6.42227655
C       -1.99437145       3.14607589       3.88325630
C       -2.71384223       3.90958737       4.46352306
C       -3.67564791       4.85342527       5.18895712
C       -4.46397459       5.55058881       5.74482156
C       -5.42044626       6.39643232       6.41924086
H       -6.32257243       6.46745561       5.79832376
N       -5.80130049       5.72255512       7.64481516
C       -7.01203535       5.88441476       8.26698134
O       -7.90444963       6.60456259       7.83215091
C       -7.13412545       5.09972582       9.58110570
N       -6.10872983       4.03577908       9.66646596
C       -4.92454792       7.82372094       6.65141752
H       -2.75596304       1.26771177       1.97879923
H       -2.04588088       2.71650431       1.22799917
H       -1.75278229       0.65979861       4.50765628
H        0.83200962      -1.55004731       4.61369439
H       -0.74269401      -1.11768600       5.29993727
H        1.80941188      -0.00977402       6.22918270
H        1.12344673      -1.32295172       6.90379464
H       -5.10579540       5.20195182       8.17712209
H       -8.12995964       4.65028288       9.63578595
H       -6.99946678       5.80073782      10.40961725
H       -6.33803681       3.31851326       8.97524047
H       -6.19802829       3.57634513      10.57357844
H       -5.68711847       8.43974745       7.13762600
H       -4.61732146       8.30534081       5.71795693
C       -3.77869145       7.87965773       7.52175311
C       -2.81903666       7.92650479       8.25065915
Br      -1.26735602       8.00225254       9.42923859
C        1.82608481      -1.82608481       1.82608481
C        2.80424966      -2.67389336       1.00527186
H        3.39773185      -2.02043385       0.35529335
N        2.11171141      -3.66521747       0.19699671
C        2.04144803      -3.57421790      -1.17395199
O        2.58113355      -2.68294008      -1.82558900
C        1.24486686      -4.69611367      -1.84710676
N        2.14974879      -5.54398780      -2.62932423
C        3.70918200      -3.39036696       1.92415468
C        4.41780063      -3.97375296       2.69539906
C        5.27806554      -4.72837297       3.71159179
C        5.90067388      -5.33186996       4.52684112
C        6.65605949      -6.06408758       5.51597237
H        6.26290598      -5.81547373       6.50997209
N        6.39710012      -7.47356400       5.29800664
C        6.45518727      -8.42703662       6.28120756
O        6.71348204      -8.17447166       7.45320944
C        6.19558603      -9.85087082       5.76850013
N        5.53714255      -9.83075774       4.44307458
C        8.14670976      -5.72526903       5.52770759
H        1.14141830      -2.44286909       2.41818665
H        2.35119478      -1.14024256       2.49894703
H        1.76914207      -4.50295398       0.64814114
H        0.49297829      -4.23285208      -2.49419291
H        0.72287784      -5.30563305      -1.10356560
H        2.70891156      -4.93047746      -3.22939222
H        1.59933264      -6.12118404      -3.26312048
H        6.30213478      -7.83325733       4.34947720
H        5.55610829     -10.37559006       6.48433013
H        7.15792645     -10.36407107       5.68782434
H        4.58548257      -9.47897851       4.56732947
H        5.43032970     -10.79423865       4.12338352
H        8.67806672      -6.27793541       6.30848979
H        8.32001088      -4.65369002       5.66691830
C        8.80656558      -6.07658731       4.29694939
C        9.35919483      -6.37081638       3.26618939
Br      10.25274959      -6.84655989       1.59953766
C       -0.00445707       0.01189536      -1.78238275
H       -0.66409135       0.67374010      -2.43557963
H        0.65740317      -0.63156657      -2.45157240
C       -0.90989263      -0.90692880      -0.91072765
C        0.90977584       0.90977584      -0.90977584
C       -0.00465871       1.77757030       0.00794375
H       -0.66225468       2.44313916      -0.64384735
H        0.64322798       2.43503045       0.67728295
C       -1.78241447       0.00034974      -0.00472694
H       -2.45427497      -0.65498947       0.64260836
H       -2.43311707       0.67328779      -0.65473579
C       -0.91132561       0.90220522       0.91563759
C       -0.01476271      -0.02253852       1.78660255
H       -0.67934791      -0.69751639       2.42135241
H        0.63392994       0.61504881       2.47327442
C        0.01484550      -1.77751727      -0.01636693
H        0.67870853      -2.42144646      -0.68295456
H       -0.62264859      -2.45592969       0.64226336
C        1.78714474       0.01002794       0.00389507
H        2.44202412       0.67113390       0.66197326
H        2.45385902      -0.65136977      -0.64189061
C        0.91606151      -0.90478549       0.90901405
