109
Properties=species:S:1:pos:R:3 pbc="F F F"
C        0.00000000       0.00000000       0.00000000
C        0.91721941       0.91721941      -0.91721941
H        1.45812211       0.23176822      -1.57766059
O        1.84576005       1.61551278      -0.09902411
C        1.47152341       2.91649223       0.00574114
O        2.03541496       3.73053026       0.71924992
C        0.26143026       3.20601799      -0.82459326
C        0.08349514       1.95051743      -1.65047946
H       -0.97733330       1.68075953      -1.71332405
C        0.55537290       2.13688441      -3.04076333
C        0.89328311       2.25883346      -4.18311660
C        1.30366516       2.39414027      -5.65216747
C        1.63622915       2.49541187      -6.80067094
C        2.07195348       2.62311220      -8.20830738
H        1.29328343       2.18745956      -8.84457717
C        3.40632379       1.93891036      -8.41817079
C        4.37771661       3.04685969      -8.14777267
O        5.56644944       2.89595711      -7.91955175
O        3.76724724       4.26119343      -8.23999664
C        2.39060284       4.06690597      -8.54548661
H        1.78195019       4.79504301      -7.99994772
H       -0.58722030       3.35630186      -0.15007309
H        0.42735266       4.10417150      -1.42704334
H        3.53624814       1.61531125      -9.45565522
H        3.57579240       1.09965567      -7.73764823
C        2.17207004       4.33234377      -9.94383785
C        1.98904881       4.55464793     -11.11495701
Br       1.69311897       4.91409495     -13.00855765
C       -0.91721941      -0.91721941      -0.91721941
H       -0.95666676      -0.41938996      -1.89149420
O       -2.22430676      -0.97339814      -0.36259205
C       -2.41943814      -2.18376940       0.22093302
O       -3.42039941      -2.47981216       0.85351627
C       -1.23831515      -3.08101961       0.02729325
C       -0.37962382      -2.33448284      -0.97038537
H        0.67856504      -2.40342436      -0.69189097
C       -0.49680960      -2.90549274      -2.33071830
C       -0.53710428      -3.36040831      -3.43772059
C       -0.55931383      -3.93285133      -4.85780774
C       -0.58532100      -4.37326433      -5.97372664
C       -0.64343813      -4.90869683      -7.35123811
H        0.38195364      -4.97508434      -7.73218946
C       -1.50543554      -4.02746482      -8.23050457
C       -2.86089529      -4.64419142      -8.06726226
O       -3.91532694      -4.10575921      -8.36087216
O       -2.76131464      -5.91647535      -7.59064731
C       -1.38790468      -6.22943630      -7.38565444
H       -1.27418679      -6.82710665      -6.47564748
H       -0.72558774      -3.18242081       0.98885390
H       -1.56794368      -4.06160108      -0.32902274
H       -1.21924115      -4.10379066      -9.28418279
H       -1.51581181      -2.97946789      -7.91781659
C       -0.92265884      -7.05792532      -8.46766750
C       -0.53301545      -7.75178487      -9.37385343
Br       0.09700496      -8.87369709     -10.83907944
C       -0.91721941       0.91721941       0.91721941
H       -1.60913562       1.42265580       0.23575949
O       -0.10613673       1.88462549       1.56953472
C        0.04191816       1.54770054       2.87649213
O        0.76099492       2.15106879       3.65662143
C       -0.74844062       0.32471126       3.21888962
C       -1.60137187       0.09248540       1.99063476
H       -1.64309656      -0.97636350       1.75001722
C       -2.99837785       0.53319001       2.20145278
C       -4.14574111       0.84469648       2.34479559
C       -5.62115018       1.22057177       2.50825096
C       -6.77505032       1.52603127       2.63123039
C       -8.18995179       1.92861102       2.78481026
H       -8.81643282       1.12259172       2.38629562
C       -8.45252152       3.23860257       2.07228084
C       -8.17945408       4.24555567       3.14733922
O       -7.98666809       5.43536697       2.95992324
O       -8.22424463       3.66520127       4.37899141
C       -8.49816639       2.27650079       4.22832824
H       -7.91818653       1.70153130       4.95722310
H       -0.04809762      -0.50203621       3.37309325
H       -1.33175218       0.49874064       4.12807468
H       -9.50105872       3.33319531       1.77296058
H       -7.79853333       3.40330069       1.21126228
C       -9.88296455       2.02914519       4.53614192
C      -11.04273301       1.82198488       4.79393587
Br     -12.91798052       1.48702417       5.21076688
C        0.91721941      -0.91721941       0.91721941
H        0.25917956      -1.69979545       1.30857591
O        1.42228553      -0.14216296       1.99584845
C        2.73434532       0.13438331       1.78231250
O        3.40229434       0.85849231       2.50289326
C        3.23553011      -0.52162523       0.53488617
C        2.10489385      -1.44456196       0.13503622
H        1.95209479      -1.41490667      -0.95025118
C        2.39750063      -2.85310795       0.48241206
C        2.61211667      -4.00802106       0.71509544
C        2.86927141      -5.49268101       0.98802048
C        3.06467419      -6.65515694       1.21248084
C        3.30487097      -8.08271153       1.51579056
H        3.02395401      -8.66827580       0.63309034
C        2.51763767      -8.50870019       2.73706707
C        3.48478826      -8.23873423       3.84882649
O        3.19030785      -8.16160649       5.03004397
O        4.75706982      -8.13916458       3.37220291
C        4.73789072      -8.30637117       1.95873354
H        5.45783533      -7.62548965       1.49361594
H        3.39392866       0.25548184      -0.21929217
H        4.17426663      -1.04534965       0.73895122
H        2.30098133      -9.58149039       2.72474289
H        1.59459751      -7.93947021       2.87902858
C        5.17909769      -9.63751550       1.63163847
C        5.54860853     -10.75234887       1.35769635
Br       6.14607631     -12.55494015       0.91475511
