122
Properties=species:S:1:pos:R:3 pbc="F F F"
C        1.82712344       1.82712344      -1.82712344
H        2.36802613       1.14167225      -2.48756461
O        2.75566407       2.52541681      -1.00892813
C        2.38142744       3.82639626      -0.90416289
O        2.94531899       4.64043428      -0.19065410
C        1.17133428       4.11592201      -1.73449729
C        0.99339916       2.86042146      -2.56038348
H       -0.06742927       2.59066355      -2.62322807
C        1.46527693       3.04678844      -3.95066735
C        1.80318714       3.16873748      -5.09302063
C        2.21356918       3.30404430      -6.56207150
C        2.54613318       3.40531590      -7.71057497
C        2.98185751       3.53301622      -9.11821141
H        2.20318745       3.09736358      -9.75448119
C        4.31622781       2.84881438      -9.32807481
C        5.28762063       3.95676372      -9.05767670
O        6.47635347       3.80586114      -8.82945578
O        4.67715126       5.17109745      -9.14990066
C        3.30050687       4.97681000      -9.45539064
H        2.69185422       5.70494703      -8.90985175
Br       3.00431278       5.33657798     -11.35068212
H        0.32268372       4.26620589      -1.05997712
H        1.33725668       5.01407552      -2.33694737
H        4.44615216       2.52521527     -10.36555924
H        4.48569642       2.00955970      -8.64755225
C       -1.82712344      -1.82712344      -1.82712344
H       -1.87159179      -2.79955255      -1.32611865
O       -1.21190151      -1.97911746      -3.09899005
C       -1.87062474      -1.22518072      -4.01618112
O       -1.50842279      -1.09368244      -5.17430214
C       -3.06038934      -0.54730628      -3.41405797
C       -3.18316848      -1.18420631      -2.04682931
H       -3.42709585      -0.42706719      -1.29229931
C       -4.26965694      -2.18823341      -2.00484236
C       -5.16245154      -2.98186538      -1.92062833
C       -6.30750464      -3.98920664      -1.78297370
C       -7.19694754      -4.78773533      -1.67734118
C       -8.28023964      -5.78840288      -1.56444262
H       -8.82795369      -5.59109649      -0.63598205
C       -7.71416967      -7.19261242      -1.58633491
C       -7.73360538      -7.52047899      -3.04797668
O       -7.11121720      -8.43047084      -3.56998234
O       -8.58380490      -6.69473448      -3.71960999
C       -9.15946738      -5.77328236      -2.79995776
H       -9.25053739      -4.78799745      -3.26811816
Br     -10.97804253      -6.33953104      -2.37399930
H       -2.83871752       0.52124345      -3.33139265
H       -3.93915332      -0.70176564      -4.04736060
H       -8.36837208      -7.90061032      -1.06794428
H       -6.69777360      -7.25735553      -1.18767924
C       -1.82712344       1.82712344       1.82712344
H       -1.86598489       1.32966622       2.80161188
O       -3.13445365       1.88256122       1.27299415
C       -3.33029905       3.09262233       0.68906520
O       -4.33162975       3.38801490       0.05676272
C       -2.14945638       3.99041951       0.88187769
C       -1.29007098       3.24462174       1.87951138
H       -0.23202056       3.31387347       1.60056833
C       -1.40694273       3.81612646       3.23966353
C       -1.44697799       4.27146661       4.34650065
C       -1.46885031       4.84446604       5.76636862
C       -1.49458874       5.28531286       6.88212245
C       -1.55237085       5.82127053       8.25944376
H       -0.52685407       5.88821773       8.63996043
C       -2.41366742       4.94004567       9.13940392
C       -3.76943743       5.55616780       8.97645582
O       -4.82353773       5.01743296       9.27069970
O       -3.67055294       6.82830142       8.49929501
C       -2.29734937       7.14172725       8.29363088
H       -2.18423156       7.73908048       7.38334096
Br      -1.66662994       8.26547582       9.75946712
H       -1.63715207       4.09164193      -0.07992727
H       -2.47933344       4.97101150       1.23793463
H       -2.12708415       5.01690486      10.19293767
H       -2.42375091       3.89192030       8.82713716
C        1.82712344      -1.82712344       1.82712344
H        1.62520648      -2.85692535       1.51513117
O        1.44326630      -1.66150673       3.18523599
C        2.37064516      -0.90952428       3.83181714
O        2.25532608      -0.53374719       4.98733410
C        3.51856994      -0.56735438       2.93582926
C        3.28381722      -1.42149265       1.70889423
H        3.49824822      -0.85022536       0.79798877
C        4.17319290      -2.60417924       1.68536057
C        4.89966734      -3.55332227       1.61195564
C        5.82753430      -4.76505818       1.48709250
C        6.54600734      -5.72167167       1.39434503
C        7.41961163      -6.91157604       1.30189747
H        7.80895865      -6.96705930       0.27901428
C        6.65532879      -8.16497681       1.67281141
C        6.89497571      -8.25843310       3.14865224
O        6.24628545      -8.94385513       3.92152979
O        7.97361399      -7.51076270       3.51377268
C        8.50477291      -6.86761375       2.36032083
H        8.83406435      -5.85569017       2.61689848
Br      10.10121033      -7.82181037       1.76855218
H        3.45498830       0.49753461       2.69141303
H        4.46474456      -0.78183070       3.44170430
H        7.08293507      -9.05444144       1.19955016
H        5.58508318      -8.10089157       1.45683363
C       -0.00445707       0.01189536      -1.78238275
H       -0.66409135       0.67374010      -2.43557963
H        0.65740317      -0.63156657      -2.45157240
C       -0.90989263      -0.90692880      -0.91072765
C        0.90977584       0.90977584      -0.90977584
C       -0.00465871       1.77757030       0.00794375
H       -0.66225468       2.44313916      -0.64384735
H        0.64322798       2.43503045       0.67728295
C       -1.78241447       0.00034974      -0.00472694
H       -2.45427497      -0.65498947       0.64260836
H       -2.43311707       0.67328779      -0.65473579
C       -0.91132561       0.90220522       0.91563759
C       -0.01476271      -0.02253852       1.78660255
H       -0.67934791      -0.69751639       2.42135241
H        0.63392994       0.61504881       2.47327442
C        0.01484550      -1.77751727      -0.01636693
H        0.67870853      -2.42144646      -0.68295456
H       -0.62264859      -2.45592969       0.64226336
C        1.78714474       0.01002794       0.00389507
H        2.44202412       0.67113390       0.66197326
H        2.45385902      -0.65136977      -0.64189061
C        0.91606151      -0.90478549       0.90901405
