106
Properties=species:S:1:pos:R:3 pbc="F F F"
C        1.83553639       1.83553639      -1.83553639
H        1.39981595       1.74283572      -2.83366664
C        3.26452427       1.36525357      -1.74622993
C        3.82605547       2.24156679      -0.67201495
O        4.89842160       2.08182602      -0.11474770
O        3.00371904       3.30415925      -0.42951591
C        1.85049434       3.24777075      -1.28029495
H        0.97475477       3.46394923      -0.65750378
C        1.93214370       4.33233250      -2.37333955
H        1.00986760       4.28430945      -2.96454428
O        3.02489089       4.06836730      -3.26433283
C        4.03686866       4.96027753      -3.05306834
O        5.10041917       4.92121083      -3.64771244
C        3.68488180       5.92017671      -1.96122099
C        2.19757180       5.72261917      -1.82231195
H        1.82016133       5.89011377      -0.80992317
Br       1.25368146       7.05120863      -2.92150860
H        3.80991577       1.57171721      -2.67235166
H        3.37397867       0.31043965      -1.48015449
H        4.21382256       5.61166938      -1.05460663
H        3.97813742       6.93718834      -2.23267509
C       -1.83553639      -1.83553639      -1.83553639
H       -1.93027162      -1.27621940      -2.76982728
C       -3.14772889      -2.08914762      -1.13913125
C       -2.89959812      -3.39214502      -0.44789407
O       -3.61302718      -3.88873688       0.40676874
O       -1.78600115      -4.00480307      -0.94658998
C       -1.19533248      -3.20388643      -1.97934112
H       -0.11443608      -3.18344708      -1.79832461
C       -1.43074640      -3.84546980      -3.36159955
H       -0.92003683      -3.22829241      -4.11039209
O       -2.82783206      -3.84290848      -3.68685049
C       -3.33728652      -5.10708024      -3.60584776
O       -4.51423490      -5.36878194      -3.78632561
C       -2.28034790      -6.08501028      -3.20092132
C       -1.01174941      -5.30395215      -3.42680136
H       -0.19760374      -5.57384212      -2.74875242
Br      -0.30706947      -5.70081382      -5.21851540
H       -3.95852002      -2.23604137      -1.85942326
H       -3.42945268      -1.31727975      -0.41784039
H       -2.42129023      -6.31758080      -2.14122754
H       -2.35439916      -7.00006054      -3.79354116
C       -1.83553639       1.83553639       1.83553639
H       -2.40394716       2.44449701       1.12787413
C       -0.96774685       2.63638850       2.77187241
C       -0.95078652       1.78637863       4.00247206
O       -0.20555311       1.93355570       4.95588650
O       -1.93679349       0.84302265       3.95757806
C       -2.68279275       0.95772230       2.73804498
H       -2.81245415      -0.05473062       2.33848424
C       -4.08380507       1.53942338       3.01458731
H       -4.63272949       1.56043713       2.06555471
O       -3.98452738       2.89240796       3.48065569
C       -4.27844326       2.95944163       4.81232963
O       -4.21825267       3.98961239       5.46147739
C       -4.60396237       1.60501431       5.35730282
C       -4.83762336       0.79911112       4.10576843
H       -4.57510241      -0.25780521       4.20290108
Br      -6.75690826       0.78863124       3.68085919
H       -1.43444987       3.59300742       3.02652736
H        0.04859491       2.80663621       2.40653152
H       -3.73085976       1.24178780       5.90745101
H       -5.46734402       1.65550552       6.02515131
C        1.83553639      -1.83553639       1.83553639
H        2.64741085      -2.15283423       1.17607323
C        1.01563656      -2.97348377       2.38688743
C        0.58040895      -2.44321596       3.71601231
O       -0.27391393      -2.93737359       4.43153567
O        1.31735366      -1.34979236       4.07024818
C        2.28075342      -1.04549572       3.05231090
H        2.24810309       0.03738269       2.88548736
C        3.70205852      -1.40746884       3.52828839
H        4.40603715      -1.11120046       2.74148372
O        3.82891971      -2.82556150       3.70310982
C        3.88078950      -3.13824322       5.03118180
O        3.93808919      -4.28201443       5.44923883
C        3.78437750      -1.90692460       5.87497740
C        4.05451405      -0.80894899       4.87903989
H        3.54550219       0.13162282       5.10631891
Br       5.96572967      -0.35006884       4.91060018
H        1.63256343      -3.86056752       2.56085370
H        0.14935506      -3.23988297       1.77533479
H        2.76583763      -1.84479507       6.26946587
H        4.49898351      -1.94844109       6.70057626
C       -0.00445707       0.01189536      -1.78238275
H       -0.66409135       0.67374010      -2.43557963
H        0.65740317      -0.63156657      -2.45157240
C       -0.90989263      -0.90692880      -0.91072765
C        0.90977584       0.90977584      -0.90977584
C       -0.00465871       1.77757030       0.00794375
H       -0.66225468       2.44313916      -0.64384735
H        0.64322798       2.43503045       0.67728295
C       -1.78241447       0.00034974      -0.00472694
H       -2.45427497      -0.65498947       0.64260836
H       -2.43311707       0.67328779      -0.65473579
C       -0.91132561       0.90220522       0.91563759
C       -0.01476271      -0.02253852       1.78660255
H       -0.67934791      -0.69751639       2.42135241
H        0.63392994       0.61504881       2.47327442
C        0.01484550      -1.77751727      -0.01636693
H        0.67870853      -2.42144646      -0.68295456
H       -0.62264859      -2.45592969       0.64226336
C        1.78714474       0.01002794       0.00389507
H        2.44202412       0.67113390       0.66197326
H        2.45385902      -0.65136977      -0.64189061
C        0.91606151      -0.90478549       0.90901405
