170
Properties=species:S:1:pos:R:3 pbc="F F F"
C        1.82511646       1.82511646      -1.82511646
O        1.01708545       2.82505012      -2.41784332
C        1.36959269       3.15372015      -3.79053437
H        2.05822403       2.39566370      -4.19198602
C        2.13706277       4.51916340      -3.73412655
H        1.53466264       5.20767006      -3.12498170
C        2.49836217       5.23536100      -5.02377213
C        2.48796450       6.64409706      -5.03992246
C        2.80288619       7.35674939      -6.19776168
C        3.13705850       6.67253566      -7.36113711
C        3.17300292       5.27868621      -7.36030031
C        2.87007457       4.56277092      -6.19638732
O        3.41000967       4.26003592      -3.09367538
C        3.51650461       4.77830276      -1.77864710
C        0.06942460       2.99415165      -4.57524672
C       -0.42742655       3.91924695      -5.50326508
C       -1.59370771       3.65779457      -6.23210562
C       -2.30735421       2.47900891      -6.03461603
C       -1.84620914       1.55076850      -5.10941411
C       -0.66965389       1.80271879      -4.40549110
H        2.30852674       1.15639168      -2.54036208
H        2.55479428       2.27547899      -1.15153525
H        2.23573768       7.20234519      -4.13997476
H        2.79049794       8.44402234      -6.18721561
H        3.37964840       7.22418233      -8.26592735
H        3.44208044       4.74750680      -8.26970622
H        2.91757045       3.47759625      -6.22652934
H        4.10490734       4.07612541      -1.18150224
H        2.55567528       4.95057620      -1.28608855
H        0.07135958       4.86151457      -5.70121540
H       -1.94542835       4.38198670      -6.96408729
H       -3.21687118       2.28718629      -6.59445116
H       -2.40062778       0.63260254      -4.93447601
H       -0.33391232       1.04635176      -3.69594692
C        4.26772844       6.00682153      -1.78074234
C        4.89687839       7.03570601      -1.78249711
Br       5.91416066       8.69932518      -1.78533441
C       -1.82511646      -1.82511646      -1.82511646
O       -3.18155182      -1.52038904      -1.55803803
C       -4.07420500      -2.66911898      -1.57052323
H       -3.48733718      -3.59943179      -1.55910478
C       -4.85280693      -2.60809555      -2.92945023
H       -5.24456051      -1.58674402      -3.03600987
C       -5.99672461      -3.57324354      -3.18752716
C       -7.09782610      -3.12853215      -3.94562577
C       -8.18170079      -3.96753983      -4.20815664
C       -8.18268570      -5.26906499      -3.71898057
C       -7.09328797      -5.73482964      -2.98387184
C       -5.99972168      -4.89873944      -2.73077169
O       -3.89386437      -2.89305434      -3.97680224
C       -3.54033798      -1.76876506      -4.76435144
C       -4.79721387      -2.61495998      -0.22664912
C       -6.17964591      -2.76376977      -0.05166980
C       -6.75039850      -2.77238272       1.22658874
C       -5.95981475      -2.60679368       2.36033770
C       -4.58793752      -2.44161914       2.21558320
C       -4.02018999      -2.46093768       0.94257167
H       -1.54488270      -2.85699237      -1.60340543
H       -1.57057560      -1.55962256      -2.85161036
H       -7.11744060      -2.11587069      -4.34474634
H       -9.02033853      -3.60413222      -4.79726514
H       -9.02673899      -5.92447003      -3.91854907
H       -7.09437497      -6.75535265      -2.60956584
H       -5.16218301      -5.29584399      -2.16366905
H       -2.48203492      -1.85439502      -5.02610504
H       -3.71176360      -0.80673880      -4.27383763
H       -6.85652105      -2.88787891      -0.88968959
H       -7.82368747      -2.91351161       1.33655345
H       -6.40956252      -2.60303587       3.34783213
H       -3.96012249      -2.29711345       3.09078516
H       -2.93943673      -2.33871580       0.86976617
C       -4.25033845      -1.78795276      -6.01700110
C       -4.84496385      -1.80402247      -7.06609518
Br      -5.80642283      -1.83000583      -8.76239159
C       -1.82511646       1.82511646       1.82511646
O       -3.18176618       1.53760173       1.54061097
C       -4.06240416       2.69553472       1.55590833
H       -3.46572311       3.61964332       1.56050733
C       -4.85596357       2.62851798       2.90587117
H       -5.25951538       1.61031478       2.99748424
C       -5.99236674       3.60297686       3.16215171
C       -7.10604559       3.16203488       3.90390354
C       -8.18378267       4.00968433       4.16393026
C       -8.16593157       5.31620588       3.68859382
C       -7.06397804       5.77808170       2.96992970
C       -5.97661980       4.93314777       2.71946524
O       -3.90524033       2.89229574       3.96618489
C       -3.57189285       1.75612414       4.74543749
C       -4.77165624       2.66314033       0.20402640
C       -6.15051910       2.82842197       0.01614441
C       -6.70756894       2.85649052      -1.26786698
C       -5.90679263       2.69443122      -2.39495312
C       -4.53833467       2.51321554      -2.23757675
C       -3.98394098       2.51316227      -0.95854725
H       -1.53174114       2.85623268       1.61730668
H       -1.58426886       1.54618783       2.85135183
H       -7.14050956       2.14550780       4.29204027
H       -9.03238300       3.64902752       4.74032537
H       -9.00513222       5.97839147       3.88623439
H       -7.05039383       6.80242863       2.60647100
H       -5.12899825       5.32727861       2.16541918
H       -2.51558381       1.82778169       5.01916948
H       -3.74819027       0.80116656       4.24298320
H       -6.83489991       2.95090242       0.84828722
H       -7.77809279       3.01013343      -1.38758059
H       -6.34606282       2.70579815      -3.38709470
H       -3.90282833       2.37125080      -3.10762835
H       -2.90536150       2.37873487      -0.87571001
C       -4.29489065       1.76969715       5.99070451
C       -4.90040131       1.78106455       7.03361564
Br      -5.87946083       1.79944468       8.71991473
C        1.82511646      -1.82511646       1.82511646
O        1.08792656      -2.97505732       2.19699500
C        1.32400187      -3.43193127       3.55791407
H        1.86324382      -2.65833284       4.12429709
C        2.25803526      -4.68565827       3.44665918
H        1.81818373      -5.35506959       2.69406109
C        2.56058468      -5.51319482       4.68371581
C        2.72510505      -6.90519556       4.54168341
C        2.99614489      -7.71787392       5.64337845
C        3.11046836      -7.15198741       6.90827550
C        2.97129656      -5.77374138       7.06695150
C        2.71234694      -4.95575126       5.96113462
O        3.55172585      -4.20837038       3.00362474
C        3.86790423      -4.54264620       1.66290405
C       -0.06504504      -3.51755071       4.18631731
C       -0.54211871      -4.60113255       4.93607164
C       -1.80572839      -4.56441746       5.53750341
C       -2.63507066      -3.45690126       5.38444013
C       -2.19390568      -2.37454227       4.63333686
C       -0.92412894      -2.40387023       4.05881470
H        2.13834138      -1.20173737       2.66520175
H        2.67582784      -2.10354728       1.20243339
H        2.64648729      -7.37080225       3.56076809
H        3.12138018      -8.78983150       5.51052421
H        3.31815800      -7.78226315       7.76933694
H        3.06886776      -5.33413240       8.05629330
H        2.61980686      -3.88441445       6.11747473
H        4.42638200      -3.71012105       1.22603193
H        2.99702314      -4.75759231       1.03772458
H        0.04570502      -5.49942463       5.08895991
H       -2.14310470      -5.40922721       6.13452312
H       -3.61802556      -3.43909676       5.84369506
H       -2.83611353      -1.50908175       4.49348256
H       -0.60903356      -1.53192957       3.48549035
C        4.76225380      -5.67052366       1.62251486
C        5.51127157      -6.61512102       1.58868891
Br       6.72236995      -8.14245508       1.53399522
C       -0.00445707       0.01189536      -1.78238275
H       -0.66409135       0.67374010      -2.43557963
H        0.65740317      -0.63156657      -2.45157240
C       -0.90989263      -0.90692880      -0.91072765
C        0.90977584       0.90977584      -0.90977584
C       -0.00465871       1.77757030       0.00794375
H       -0.66225468       2.44313916      -0.64384735
H        0.64322798       2.43503045       0.67728295
C       -1.78241447       0.00034974      -0.00472694
H       -2.45427497      -0.65498947       0.64260836
H       -2.43311707       0.67328779      -0.65473579
C       -0.91132561       0.90220522       0.91563759
C       -0.01476271      -0.02253852       1.78660255
H       -0.67934791      -0.69751639       2.42135241
H        0.63392994       0.61504881       2.47327442
C        0.01484550      -1.77751727      -0.01636693
H        0.67870853      -2.42144646      -0.68295456
H       -0.62264859      -2.45592969       0.64226336
C        1.78714474       0.01002794       0.00389507
H        2.44202412       0.67113390       0.66197326
H        2.45385902      -0.65136977      -0.64189061
C        0.91606151      -0.90478549       0.90901405
