178
Properties=species:S:1:pos:R:3 pbc="F F F"
C        1.82274951       1.82274951      -1.82274951
O        1.78180908       3.14850374      -1.33024993
C        2.51633208       4.07065156      -2.14369882
H        2.18574586       3.98024706      -3.18622667
C        2.15182759       5.45933745      -1.62867441
C        1.10322352       6.17962203      -2.22258498
C        0.75053210       7.44769203      -1.75017637
C        1.43522048       8.01366141      -0.67626877
C        2.46217414       7.30667737      -0.05962159
C        2.80756363       6.03587629      -0.52225605
C        3.93416640       3.81661693      -2.04201613
C        5.10276834       3.60724190      -1.95822369
C        6.43672795       2.88765778      -1.81221314
C        7.23136539       2.00458595      -1.66202458
C        7.94662224       0.73420391      -1.44329583
H        9.02118225       0.85705533      -1.62019049
C        7.38892523      -0.33059000      -2.38117717
C        8.21089824      -0.95479445      -3.33083353
C        7.67980750      -1.88950325      -4.22479430
C        6.32361445      -2.21113511      -4.18396463
C        5.49585895      -1.61256874      -3.23845130
C        6.02561723      -0.68676814      -2.33874251
O        7.72088006       0.26892100      -0.10791045
C        8.38795689       1.02819135       0.88511076
Br      10.19005979       0.36155109       1.16282850
H        1.42137661       1.75638515      -2.83724837
H        2.82783480       1.39627851      -1.76529856
H        0.54441451       5.75403660      -3.05274839
H       -0.06537541       7.99343023      -2.21688221
H        1.16080990       8.99987714      -0.31155511
H        2.99103573       7.73727634       0.78679820
H        3.59759831       5.49565578      -0.00417723
H        9.27055181      -0.71700838      -3.38601826
H        8.32535160      -2.36657385      -4.95792343
H        5.91323042      -2.93235628      -4.88601106
H        4.43959321      -1.86557205      -3.19973226
H        5.36793417      -0.23065223      -1.60071270
H        7.86572299       0.89067763       1.83562204
H        8.44441536       2.09711868       0.66057093
C       -1.82274951      -1.82274951      -1.82274951
O       -2.71563265      -2.54691934      -0.99801077
C       -3.53245906      -3.46760051      -1.73062289
H       -2.89292856      -4.10760794      -2.35168308
C       -4.22622434      -4.33138521      -0.68222989
C       -3.66095546      -5.55502838      -0.28944669
C       -4.28026723      -6.34903302       0.68089975
C       -5.46936870      -5.93232018       1.27653821
C       -6.03346090      -4.71261544       0.91760325
C       -5.41028364      -3.91331396      -0.04209837
C       -4.48274989      -2.75676008      -2.55328950
C       -5.26599224      -2.17088648      -3.23135521
C       -5.89981228      -1.11267107      -4.12411551
C       -6.03637368      -0.10508182      -4.75652042
C       -5.91276015       1.20660277      -5.41796461
H       -6.73181626       1.36260160      -6.12921341
C       -4.57605283       1.28368618      -6.14714574
C       -4.52392971       1.47288093      -7.53588853
C       -3.29636743       1.48634597      -8.20507709
C       -2.10733385       1.30938524      -7.49849535
C       -2.13901172       1.13515142      -6.11788120
C       -3.36231857       1.13124272      -5.44651575
O       -5.91052170       2.25078738      -4.43797718
C       -7.17134648       2.47022030      -3.82991129
Br      -8.22965946       3.71701450      -4.87613742
H       -1.15309493      -2.48770685      -2.37420835
H       -2.34979688      -1.14246773      -2.49714726
H       -2.72646542      -5.89572073      -0.72901335
H       -3.83047603      -7.29274813       0.97828712
H       -5.95006494      -6.55142766       2.02925046
H       -6.95367023      -4.37607872       1.38823508
H       -5.86057750      -2.95259022      -0.28426360
H       -5.43760883       1.60788487      -8.10983773
H       -3.26713814       1.63237235      -9.28193539
H       -1.15570605       1.31251991      -8.02369905
H       -1.21375088       1.00318549      -5.56318804
H       -3.37197658       0.99980051      -4.36581857
H       -7.01006702       2.95044765      -2.86115922
H       -7.75590373       1.55762585      -3.68268522
C       -1.82274951       1.82274951       1.82274951
O       -3.09519614       1.94838281       1.21698381
C       -3.97083191       2.82824505       1.93160551
H       -3.46707948       3.78927390       2.09586620
C       -5.17188884       3.05003692       1.01791368
C       -5.20378789       4.15247581       0.14916683
C       -6.29299671       4.35868355      -0.70327976
C       -7.36362963       3.46641700      -0.70489597
C       -7.34075813       2.35567979       0.13203518
C       -6.24890751       2.14189115       0.97489731
C       -4.35827320       2.24161788       3.19290838
C       -4.67760794       1.75812607       4.23249993
C       -4.63846188       0.96587666       5.53226032
C       -4.23779008       0.25312741       6.40705842
C       -3.48710113      -0.65553450       7.29255535
H       -3.98420182      -0.75041547       8.26464172
C       -2.07271711      -0.12084459       7.48763987
C       -1.60230507       0.22056329       8.76406895
C       -0.32407655       0.76289092       8.92813108
C        0.49882552       0.97304947       7.82222002
C        0.05421307       0.62636377       6.54959080
C       -1.21732703       0.07576739       6.38449718
O       -3.36180235      -1.94364717       6.67955632
C       -4.57073218      -2.68165052       6.64195582
Br      -4.80571787      -3.69691677       8.27998128
H       -1.31873204       2.78893970       1.90733839
H       -1.87919607       1.31883094       2.79138485
H       -4.37444470       4.85531493       0.12143987
H       -6.30375803       5.21445305      -1.37327405
H       -8.20994500       3.62916213      -1.36686499
H       -8.16673053       1.64909233       0.12569101
H       -6.24664727       1.25092642       1.59985763
H       -2.22704970       0.07106235       9.64144965
H        0.03040350       1.02536839       9.92173629
H        1.48876132       1.40233549       7.95331103
H        0.69537690       0.78300842       5.68612190
H       -1.54999318      -0.19616418       5.38416564
H       -4.50197638      -3.41873673       5.83753894
H       -5.46037791      -2.06497919       6.48556439
C        1.82274951      -1.82274951       1.82274951
O        1.01529520      -2.43522500       2.81004255
C        1.76871722      -3.22142984       3.74053540
H        2.58284976      -2.61377792       4.15559191
C        0.79859083      -3.57944519       4.86180342
C        0.71954405      -2.77568162       6.01020486
C       -0.17590519      -3.08569050       7.03861520
C       -1.00826397      -4.19869607       6.93471856
C       -0.96125463      -4.99469656       5.79503117
C       -0.07651828      -4.67983063       4.76238362
C        2.29916088      -4.39897326       3.09466533
C        2.73637407      -5.36952094       2.56233893
C        3.32075938      -6.30406606       1.51177343
C        3.73580503      -6.70108150       0.46108939
C        4.16410260      -6.89602152      -0.93600214
H        4.70472791      -7.84261462      -1.04891445
C        5.06062437      -5.73756050      -1.35867248
C        6.38526714      -5.96258868      -1.76091851
C        7.21835083      -4.89001138      -2.09326366
C        6.74167174      -3.58131032      -2.02653810
C        5.42534679      -3.34009873      -1.64370402
C        4.58908520      -4.40958835      -1.32108196
O        3.02555001      -6.87650631      -1.80434481
C        2.20543563      -8.02735916      -1.70175730
Br       2.84160562      -9.43040264      -2.88322587
H        2.57817339      -1.16965742       2.26717932
H        2.27814117      -2.55771442       1.15355628
H        1.34828157      -1.89392650       6.10899144
H       -0.22939884      -2.45333168       7.92100419
H       -1.70235325      -4.43897406       7.73562133
H       -1.61731260      -5.85640837       5.70241810
H       -0.07982915      -5.30540633       3.87185414
H        6.78187405      -6.97359438      -1.81590674
H        8.24394197      -5.07528022      -2.40252101
H        7.39505278      -2.74987651      -2.27804410
H        5.04866740      -2.32171580      -1.59662978
H        3.56010962      -4.20679867      -1.02891365
H        1.20214599      -7.77031816      -2.05168557
H        2.13677253      -8.43226912      -0.68807854
C       -0.00445707       0.01189536      -1.78238275
H       -0.66409135       0.67374010      -2.43557963
H        0.65740317      -0.63156657      -2.45157240
C       -0.90989263      -0.90692880      -0.91072765
C        0.90977584       0.90977584      -0.90977584
C       -0.00465871       1.77757030       0.00794375
H       -0.66225468       2.44313916      -0.64384735
H        0.64322798       2.43503045       0.67728295
C       -1.78241447       0.00034974      -0.00472694
H       -2.45427497      -0.65498947       0.64260836
H       -2.43311707       0.67328779      -0.65473579
C       -0.91132561       0.90220522       0.91563759
C       -0.01476271      -0.02253852       1.78660255
H       -0.67934791      -0.69751639       2.42135241
H        0.63392994       0.61504881       2.47327442
C        0.01484550      -1.77751727      -0.01636693
H        0.67870853      -2.42144646      -0.68295456
H       -0.62264859      -2.45592969       0.64226336
C        1.78714474       0.01002794       0.00389507
H        2.44202412       0.67113390       0.66197326
H        2.45385902      -0.65136977      -0.64189061
C        0.91606151      -0.90478549       0.90901405
