154
Properties=species:S:1:pos:R:3 pbc="F F F"
C        1.82237481       1.82237481      -1.82237481
H        1.21938831       2.70166952      -2.06994197
C        2.21724628       1.06949072      -3.09770570
C        3.10678803       1.65519015      -3.94576024
C        4.50953820       1.19726242      -3.76395511
C        5.27787010       2.02428168      -3.00695478
C        5.50643337       1.72934485      -1.49326961
H        5.81635577       2.66862656      -1.01226695
C        4.12114452       1.36483353      -0.89912219
C        3.07531701       2.22280764      -1.03601258
C        6.60793981       0.64875992      -1.22782032
H        6.22978451      -0.30522922      -1.62587239
C        6.80968866       0.40712799       0.30003323
C        7.90910760       0.41672549       1.09091844
C        9.25987017       0.67578409       0.62218385
C        9.58480549       1.93242765       0.24990854
C        9.88129501       2.26080919      -1.20655771
H       10.21162196       3.30271061      -1.28074779
C        8.56128042       2.09333565      -1.95407233
C        7.93887237       0.88924561      -1.94599014
Br      11.31751903       1.22117002      -1.96991847
H        2.33122986      -0.00261496      -2.92395249
H        3.03951324       2.73716949      -4.08853958
H        4.57954695       0.12329676      -3.57915506
H        5.16083238       3.10000845      -3.15852440
H        3.91182492       0.29403714      -0.92585452
H        3.29606691       3.28612354      -1.13181264
H        5.88002827       0.15724311       0.81392120
H        7.81497241       0.17914615       2.14942781
H        9.68585511      -0.18351057       0.10324923
H        9.06331228       2.75266014       0.74548013
H        7.95292529       2.99257969      -1.86831235
H        8.55040436      -0.01432012      -1.96477989
C       -1.82237481      -1.82237481      -1.82237481
H       -2.52595284      -2.31855796      -1.14648899
C       -0.96677593      -2.85976343      -2.55790334
C       -1.56788160      -3.65293371      -3.48692310
C       -1.41071702      -3.17430455      -4.88573416
C       -2.47264957      -2.47317119      -5.36328579
C       -2.46346604      -0.91424704      -5.35133475
H       -3.50687547      -0.57281392      -5.41755989
C       -1.94607957      -0.48524601      -3.95377466
C       -2.56436004      -0.93878655      -2.83099063
C       -1.65937353      -0.28619615      -6.53895037
H       -0.60195990      -0.55499744      -6.39347035
C       -1.69916773       1.27247448      -6.49009018
C       -2.03420688       2.20880758      -7.40951534
C       -2.46233494       1.91563393      -8.76676940
C       -3.68412894       1.37270236      -8.95589802
C       -3.83160582      -0.05540943      -9.46164666
H       -4.89223882      -0.26856377      -9.63427777
C       -3.30934371      -0.95472217      -8.34462252
C       -2.02711674      -0.82108817      -7.92590323
Br      -2.96944740      -0.38142889     -11.15773123
H        0.02567452      -2.47547550      -2.80276641
H       -2.58334511      -4.00173890      -3.28013831
H       -0.41005475      -2.78577484      -5.08616918
H       -3.47149187      -2.83707294      -5.11080043
H       -0.86409294      -0.34592533      -3.92169831
H       -3.62218766      -1.19386762      -2.89794782
H       -1.36471062       1.67310585      -5.53174541
H       -1.95047882       3.26533666      -7.15954858
H       -1.62656259       1.63678928      -9.40932201
H       -4.46073063       1.62126958      -8.23103123
H       -4.08300437      -1.13193522      -7.59887773
H       -1.26023863      -0.57759099      -8.66303452
C       -1.82237481       1.82237481       1.82237481
H       -1.91489500       1.29763097       2.77847383
C       -3.20104302       2.00526899       1.17813069
C       -4.07943632       2.86570310       1.76259900
C       -4.09787312       4.22108007       1.15180254
C       -3.35166897       5.14586491       1.81157268
C       -1.90840437       5.48862637       1.33201710
H       -1.37408496       5.94509453       2.17806979
C       -1.20525214       4.13701447       1.04283363
C       -1.14202364       3.18279815       2.00931544
C       -1.87244982       6.48624706       0.12582317
H       -2.31871337       5.96884030      -0.73712599
C       -0.40699837       6.80970155      -0.29991649
C        0.25615061       7.97602336      -0.48495810
C       -0.32955288       9.29430195      -0.31038443
C       -0.60966450       9.71635082       0.94130929
C       -2.05039324       9.90222033       1.39604834
H       -2.05737011      10.33546781       2.40224244
C       -2.66207696       8.50472058       1.44189086
C       -2.70453997       7.75834611       0.31122205
Br      -3.06460659      11.13419410       0.30980683
H       -3.14708757       2.01800020       0.08747962
H       -4.10688510       2.90329861       2.85503860
H       -4.02837043       4.19119761       0.06243074
H       -3.38299201       5.13269041       2.90368282
H       -1.31416132       3.81037624       0.00717902
H       -1.15630019       3.50787226       3.04983064
H        0.17827354       5.91339452      -0.51177080
H        1.29007417       7.96108252      -0.82631760
H       -0.97390708       9.57075296      -1.14556472
H        0.01817037       9.33886411       1.74979855
H       -2.42234204       8.00963393       2.38184135
H       -2.87880424       8.26269073      -0.64063084
C        1.82237481      -1.82237481       1.82237481
H        2.81180939      -1.35434222       1.82484819
C        1.90322664      -3.23881936       1.24239669
C        2.54568517      -4.19790779       1.96414547
C        1.64086054      -5.05307709       2.77681810
C        1.54130850      -4.68608511       4.08171294
C        0.34649589      -3.81203442       4.57051752
H        0.64461076      -3.33633781       5.51630070
C        0.18048645      -2.66996908       3.53464470
C        1.23383614      -1.86353444       3.23676666
C       -0.96480307      -4.63084793       4.81847520
H       -1.30077667      -5.00994445       3.84125990
C       -2.12025848      -3.71289275       5.32414915
C       -2.94697997      -3.78757358       6.39432104
C       -2.92166219      -4.85193452       7.38319808
C       -1.88676303      -4.90516737       8.24892026
C       -0.87428119      -6.03988208       8.18306102
H       -0.17626941      -5.94884252       9.02250725
C       -0.11643919      -5.85365269       6.87147490
C       -0.79760888      -5.87197672       5.69974029
Br      -1.65134013      -7.79784455       8.36210309
H        0.97757702      -3.53225493       0.74273544
H        3.44470598      -3.90645468       2.51406165
H        0.72171226      -5.31278291       2.24750361
H        2.45736521      -4.37340434       4.58859569
H       -0.51818917      -2.91660747       2.73329827
H        1.99644827      -1.71583328       4.00172155
H       -2.30428223      -2.86393173       4.66370068
H       -3.72192560      -3.03500576       6.53161058
H       -3.38056455      -5.76851845       7.01114142
H       -1.41108772      -3.96148971       8.52009030
H        0.69031673      -5.13197227       6.99152832
H       -1.64856137      -6.54797550       5.60145000
C       -0.00445707       0.01189536      -1.78238275
H       -0.66409135       0.67374010      -2.43557963
H        0.65740317      -0.63156657      -2.45157240
C       -0.90989263      -0.90692880      -0.91072765
C        0.90977584       0.90977584      -0.90977584
C       -0.00465871       1.77757030       0.00794375
H       -0.66225468       2.44313916      -0.64384735
H        0.64322798       2.43503045       0.67728295
C       -1.78241447       0.00034974      -0.00472694
H       -2.45427497      -0.65498947       0.64260836
H       -2.43311707       0.67328779      -0.65473579
C       -0.91132561       0.90220522       0.91563759
C       -0.01476271      -0.02253852       1.78660255
H       -0.67934791      -0.69751639       2.42135241
H        0.63392994       0.61504881       2.47327442
C        0.01484550      -1.77751727      -0.01636693
H        0.67870853      -2.42144646      -0.68295456
H       -0.62264859      -2.45592969       0.64226336
C        1.78714474       0.01002794       0.00389507
H        2.44202412       0.67113390       0.66197326
H        2.45385902      -0.65136977      -0.64189061
C        0.91606151      -0.90478549       0.90901405
