170
Properties=species:S:1:pos:R:3 pbc="F F F"
C        1.83087631       1.83087631      -1.83087631
H        2.38683341       2.47131201      -1.13923164
C        2.77716681       0.88596500      -2.57604624
C        2.82463438       0.52198652      -3.88034979
C        1.88801675       1.00270614      -4.89443412
C        2.14711943       2.20289752      -5.46532903
C        1.37184460       3.46524492      -5.05713457
H        1.93083438       4.31449534      -5.47671243
C        1.50183679       3.58401675      -3.53261434
C        0.93515198       2.65819344      -2.72177577
C       -0.01197526       3.57767306      -5.52732427
C       -1.15494623       3.85380366      -5.80634643
C       -2.60781467       4.30025046      -5.96085671
C       -3.76007496       4.57018862      -5.83475079
C       -5.15809565       4.89769620      -5.68175453
H       -5.37038304       5.10359927      -4.62469525
C       -5.62367190       3.44155799      -6.04613465
C       -6.64869651       2.79263822      -5.47204946
C       -7.65990016       2.37488623      -6.42082592
C       -8.42440562       3.27769623      -7.07822177
C       -8.50154028       4.81215085      -6.97384945
H       -8.65769210       5.26607773      -7.95416189
C       -7.41259615       5.54091706      -6.18495082
C       -6.10721780       5.66790958      -6.58476158
Br     -10.19981758       5.11347855      -5.99162856
H        3.54705939       0.46259891      -1.92979810
H        3.59901147      -0.16008621      -4.22483846
H        0.85707559       0.74341586      -4.64448047
H        3.19922620       2.44296174      -5.64544437
H        2.46379268       4.00334929      -3.23097276
H        0.02907574       2.15370002      -3.05852335
H       -5.39937638       3.19053099      -7.09247083
H       -6.99639237       3.02746913      -4.47166660
H       -7.73345199       1.30944564      -6.63207163
H       -9.12180303       2.85929653      -7.80514187
H       -7.57910090       5.45694259      -5.10529999
H       -5.87227578       5.64461981      -7.64671208
C       -1.83087631      -1.83087631      -1.83087631
H       -1.91049620      -2.78536771      -1.30151314
C       -3.19346989      -1.13737733      -1.90833081
C       -3.80527890      -0.49141797      -2.93027382
C       -3.21235184      -0.31776927      -4.25503590
C       -3.34141730      -1.33804954      -5.13587915
C       -2.17239105      -2.29058941      -5.43124362
H       -2.60545839      -3.14533269      -5.97125107
C       -1.70259225      -2.83883940      -4.07703622
C       -1.13993703      -2.01407531      -3.16110885
C       -1.07661202      -1.76536163      -6.25104842
C       -0.08428011      -1.52380216      -6.89712158
C        1.27472868      -1.35395032      -7.57407086
C        2.42134527      -1.20834080      -7.85786893
C        3.81251513      -1.03166926      -8.20220094
H        4.44078568      -1.41217331      -7.38652386
C        3.71933813       0.53490173      -8.11826061
C        4.67745772       1.34019870      -7.63364760
C        5.12831583       2.32787604      -8.59200386
C        5.80646958       1.96889626      -9.70687822
C        6.31071034       0.59726640     -10.19243675
H        6.21080604       0.50183803     -11.27519160
C        5.81257767      -0.65557358      -9.47027583
C        4.53203098      -1.14119809      -9.53628625
Br       8.26577488       0.69207656      -9.86314098
H       -3.75639246      -1.20638050      -0.97668343
H       -4.80008286      -0.07415091      -2.78952997
H       -2.26615054       0.22503015      -4.20385153
H       -4.28608985      -1.88943826      -5.11210419
H       -2.34471890      -3.64247042      -3.71092541
H       -0.58263320      -1.14552789      -3.51313800
H        3.07255034       0.94862317      -8.90479895
H        5.41370618       0.99781336      -6.91426291
H        4.84135805       3.36248698      -8.41191032
H        6.05724817       2.78541078     -10.38529432
H        6.33308184      -0.79928130      -8.51694222
H        3.92898425      -0.93104463     -10.41699573
C       -1.83087631       1.83087631       1.83087631
H       -1.13873286       2.39554888       2.46309531
C       -2.58842340       2.76603221       0.88472243
C       -3.89536371       2.80257146       0.52903552
C       -4.90009463       1.86252664       1.02253574
C       -5.46482137       2.12578545       2.22473916
C       -5.04328501       1.36152373       3.48941535
H       -5.46097056       1.92333608       4.33773551
C       -3.51890939       1.50226261       3.59729587
C       -2.71043012       0.93481033       2.66988074
C       -5.50360938      -0.02457147       3.61398416
C       -5.77328936      -1.16750026       3.89941475
C       -5.91530887      -2.61837765       4.35636128
C       -5.77985755      -3.76798656       4.63299347
C       -5.61552269      -5.16279046       4.96862285
H       -4.55576481      -5.36680003       5.16894671
C       -5.98634538      -5.64031559       3.51799095
C       -5.40978104      -6.66581342       2.87202357
C       -6.35459192      -7.68592865       2.46714873
C       -7.00102227      -8.44875732       3.37924743
C       -6.88611128      -8.51510462       4.91345335
H       -7.86238487      -8.67467275       5.37483541
C       -6.09964908      -7.41625042       5.62987308
C       -6.50720550      -6.11270705       5.75095491
Br      -5.89078209     -10.20490138       5.21940882
H       -1.95004018       3.53733107       0.45208515
H       -4.24939611       3.57017211      -0.15580449
H       -4.64506074       0.83155763       0.76835354
H       -5.65028504       3.17824932       2.45909795
H       -3.22087099       2.46891032       4.00833341
H       -3.04449782       0.02324965       2.17355164
H       -7.03575479      -5.42452533       3.27239598
H       -4.40561653      -7.00540587       3.10253270
H       -6.57231234      -7.76787275       1.40362569
H       -7.72605639      -9.15363313       2.97021211
H       -5.01949782      -7.57623988       5.53988375
H       -7.57080923      -5.88487365       5.73312053
C        1.83087631      -1.83087631       1.83087631
H        1.24446623      -2.73591934       2.01699147
C        3.07990886      -2.15290338       1.00636580
C        4.36161646      -1.73210845       1.13324578
C        4.81510581      -0.80323891       2.16681229
C        5.11374941      -1.31886744       3.38272914
C        4.14739415      -1.17774628       4.56908366
H        4.50694971      -1.87607353       5.33901890
C        2.79393613      -1.72664584       4.09788591
C        2.09971843      -1.09406011       3.12134264
C        4.04664774       0.14541702       5.19179135
C        3.81837133       1.14486434       5.83169686
C        3.32398794       2.33002954       6.65933409
C        2.73003195       3.23647792       7.15131042
C        2.00940051       4.33626178       7.74821636
H        0.93132368       4.18320633       7.60979413
C        2.54261030       5.36788588       6.68929632
C        1.82654603       6.37380523       6.16325038
C        2.42438078       7.67398331       6.38541452
C        2.51104052       8.20626189       7.62673374
C        1.99749278       7.70065922       8.98762645
H        2.70633025       7.92934314       9.78556042
C        1.49155799       6.26039403       9.08210777
C        2.28463837       5.14454391       9.00535890
Br       0.43135267       8.86756838       9.34150524
H        2.88263580      -2.85846359       0.19835700
H        5.12209522      -2.09602284       0.44564567
H        4.28851411       0.15164447       2.10810228
H        5.59007873      -2.30374748       3.39380610
H        2.75945110      -2.81773070       4.12093293
H        2.20747316      -0.01377516       3.02005078
H        3.62687858       5.52353446       6.78028132
H        0.74361207       6.34654509       6.10567639
H        2.86021497       8.17470693       5.52255724
H        3.02185196       9.16805645       7.68883986
H        0.48363973       6.16400039       8.66350234
H        3.32852457       5.21325548       9.30378702
C       -0.00445707       0.01189536      -1.78238275
H       -0.66409135       0.67374010      -2.43557963
H        0.65740317      -0.63156657      -2.45157240
C       -0.90989263      -0.90692880      -0.91072765
C        0.90977584       0.90977584      -0.90977584
C       -0.00465871       1.77757030       0.00794375
H       -0.66225468       2.44313916      -0.64384735
H        0.64322798       2.43503045       0.67728295
C       -1.78241447       0.00034974      -0.00472694
H       -2.45427497      -0.65498947       0.64260836
H       -2.43311707       0.67328779      -0.65473579
C       -0.91132561       0.90220522       0.91563759
C       -0.01476271      -0.02253852       1.78660255
H       -0.67934791      -0.69751639       2.42135241
H        0.63392994       0.61504881       2.47327442
C        0.01484550      -1.77751727      -0.01636693
H        0.67870853      -2.42144646      -0.68295456
H       -0.62264859      -2.45592969       0.64226336
C        1.78714474       0.01002794       0.00389507
H        2.44202412       0.67113390       0.66197326
H        2.45385902      -0.65136977      -0.64189061
C        0.91606151      -0.90478549       0.90901405
