74
Properties=species:S:1:pos:R:3 pbc="F F F"
C        1.79082075       1.79082075      -1.79082075
N        1.33752489       3.00132163      -2.16261519
N        2.12985140       3.79517324      -2.95569787
C        3.34276980       3.34276794      -3.34275755
N        3.79063219       2.12530209      -2.96476719
N        2.99679355       1.33298526      -2.17168850
C        4.18685071       4.18684552      -4.18684222
N        3.73878560       5.40411520      -4.56464227
N        4.53279233       6.19662887      -5.35791175
C        5.73847099       5.73845149      -5.73844321
N        6.19211744       4.52824996      -5.36695037
N        5.39958917       3.73424277      -4.57368969
Br       6.82922875       6.82921393      -6.82920509
C       -1.79082075      -1.79082075      -1.79082075
N       -3.10693542      -1.52498903      -1.86953726
N       -3.90088378      -2.31748727      -2.66235147
C       -3.34276251      -3.34276018      -3.34277260
N       -2.01958427      -3.60298339      -3.25813380
N       -1.22736651      -2.80932060      -2.46478020
C       -4.18684243      -4.18684521      -4.18685082
N       -5.50982920      -3.92642762      -4.27128625
N       -6.30224958      -4.72026875      -5.06481461
C       -5.73844177      -5.73845374      -5.73847018
N       -4.42261215      -6.00461068      -5.66009495
N       -3.62851155      -5.21191660      -4.86709348
Br      -6.82920535      -6.82921353      -6.82922890
C       -1.79082075       1.79082075       1.79082075
N       -1.35208327       3.01493375       2.13444470
N       -2.14442312       3.80879783       2.92750157
C       -3.34276997       3.34276773       3.34275759
N       -3.77606064       2.11167719       2.99296364
N       -2.98223523       1.31937290       2.19985918
C       -4.18685076       4.18684538       4.18684231
N       -3.75335728       5.41773996       4.53644583
N       -4.54735089       6.21024147       5.32974059
C       -5.73847113       5.73845102       5.73844355
N       -6.17755915       4.51463656       5.39512207
N       -5.38501792       3.72061728       4.60188643
Br      -6.82922890       6.82921353       6.82920535
C        1.79082075      -1.79082075       1.79082075
N        3.10693550      -1.52498931       1.86953691
N        3.90088386      -2.31748754       2.66235111
C        3.34276251      -3.34276018       3.34277260
N        2.01958419      -3.60298312       3.25813415
N        1.22736643      -2.80932033       2.46478055
C        4.18684243      -4.18684521       4.18685082
N        5.50982928      -3.92642790       4.27128590
N        6.30224966      -4.72026903       5.06481426
C        5.73844177      -5.73845374       5.73847018
N        4.42261208      -6.00461040       5.66009530
N        3.62851147      -5.21191633       4.86709383
Br       6.82920535      -6.82921353       6.82922890
C       -0.00445707       0.01189536      -1.78238275
H       -0.66409135       0.67374010      -2.43557963
H        0.65740317      -0.63156657      -2.45157240
C       -0.90989263      -0.90692880      -0.91072765
C        0.90977584       0.90977584      -0.90977584
C       -0.00465871       1.77757030       0.00794375
H       -0.66225468       2.44313916      -0.64384735
H        0.64322798       2.43503045       0.67728295
C       -1.78241447       0.00034974      -0.00472694
H       -2.45427497      -0.65498947       0.64260836
H       -2.43311707       0.67328779      -0.65473579
C       -0.91132561       0.90220522       0.91563759
C       -0.01476271      -0.02253852       1.78660255
H       -0.67934791      -0.69751639       2.42135241
H        0.63392994       0.61504881       2.47327442
C        0.01484550      -1.77751727      -0.01636693
H        0.67870853      -2.42144646      -0.68295456
H       -0.62264859      -2.45592969       0.64226336
C        1.78714474       0.01002794       0.00389507
H        2.44202412       0.67113390       0.66197326
H        2.45385902      -0.65136977      -0.64189061
C        0.91606151      -0.90478549       0.90901405
