90
Properties=species:S:1:pos:R:3 pbc="F F F"
C        1.79209823       1.79209823      -1.79209823
N        1.47426332       3.09651458      -1.92549357
N        2.25975883       3.88632870      -2.71180530
C        3.31728010       3.31793350      -3.31691737
N        3.64619158       2.02117575      -3.19351889
N        2.85748624       1.23502848      -2.40593293
C        4.13620625       4.13955680      -4.13482647
C        4.82491838       4.84057780      -4.82441541
C        5.69770599       5.74334452      -5.70086581
C        6.37657165       6.45860675      -6.38557150
C        7.17415977       7.31112110      -7.19256309
N        6.81571695       8.60301480      -7.29012829
N        7.58319286       9.42167276      -8.06496089
C        8.65813602       8.90137226      -8.69328552
N        9.00521216       7.60114026      -8.58491751
N        8.24218105       6.77900103      -7.81102721
Br       9.72052249      10.03938086      -9.76633622
C       -1.79209823      -1.79209823      -1.79209823
N       -2.77127116      -1.20995787      -2.51504245
N       -3.55993725      -1.99452045      -3.30343514
C       -3.31740342      -3.31684933      -3.31787821
N       -2.34647981      -3.91054631      -2.60386011
N       -1.56011862      -3.12166712      -1.81666192
C       -4.13719063      -4.13428341      -4.13911548
C       -4.83387704      -4.81947308      -4.83656147
C       -5.72720599      -5.68459120      -5.73011913
C       -6.43203131      -6.35497541      -6.43374318
C       -7.26922790      -7.14011573      -7.26850034
N       -8.22802346      -6.51098440      -7.96985217
N       -9.03137745      -7.26602372      -8.77242535
C       -8.82877971      -8.59914449      -8.82486960
N       -7.86083459      -9.21624986      -8.11418548
N       -7.05463712      -8.46617366      -7.31139851
Br      -9.94402597      -9.64303340      -9.93918020
C       -1.79209823       1.79209823       1.79209823
N       -2.12967404       1.34655434       3.02004309
N       -2.91653516       2.13165979       3.80969787
C       -3.31700787       3.31715783       3.31796526
N       -2.98900069       3.77403059       2.09785494
N       -2.20173050       2.98517692       1.31154023
C       -4.13528326       4.13564176       4.13966449
C       -4.82646008       4.82305358       4.84039792
C       -5.70675470       5.69287288       5.74228874
C       -6.39610637       6.36831604       6.45632750
C       -7.21010027       7.16081603       7.30692767
N       -7.51542687       6.67205857       8.52137460
N       -8.29680578       7.43461033       9.33841040
C       -8.72439321       8.63475904       8.89364156
N       -8.40864918       9.11187518       7.67074556
N       -7.62723467       8.35422337       6.85075125
Br      -9.80711928       9.68984330      10.02927699
C        1.79209823      -1.79209823       1.79209823
N        1.87781820      -3.10864013       1.50981314
N        2.66447812      -3.89836569       2.29504901
C        3.31757006      -3.31776750       3.31679340
N        3.24210659      -2.00881816       3.60996147
N        2.45394215      -1.22281802       2.82168748
C        4.13758076      -4.13885628       4.13415247
C        4.82995094      -4.83916992       4.82079073
C        5.71129054      -5.74069314       5.68993264
C        6.40021282      -6.45488294       6.36565414
C        7.21283930      -7.30596414       7.15904053
N        7.26564800      -8.60924101       6.83397103
N        8.04746614      -9.42612230       7.59623807
C        8.72625169      -8.89298778       8.63355432
N        8.66289482      -7.58130785       8.94706726
N        7.88385353      -6.76047869       8.18787707
Br       9.80987705     -10.02830687       9.68805565
C       -0.00445707       0.01189536      -1.78238275
H       -0.66409135       0.67374010      -2.43557963
H        0.65740317      -0.63156657      -2.45157240
C       -0.90989263      -0.90692880      -0.91072765
C        0.90977584       0.90977584      -0.90977584
C       -0.00465871       1.77757030       0.00794375
H       -0.66225468       2.44313916      -0.64384735
H        0.64322798       2.43503045       0.67728295
C       -1.78241447       0.00034974      -0.00472694
H       -2.45427497      -0.65498947       0.64260836
H       -2.43311707       0.67328779      -0.65473579
C       -0.91132561       0.90220522       0.91563759
C       -0.01476271      -0.02253852       1.78660255
H       -0.67934791      -0.69751639       2.42135241
H        0.63392994       0.61504881       2.47327442
C        0.01484550      -1.77751727      -0.01636693
H        0.67870853      -2.42144646      -0.68295456
H       -0.62264859      -2.45592969       0.64226336
C        1.78714474       0.01002794       0.00389507
H        2.44202412       0.67113390       0.66197326
H        2.45385902      -0.65136977      -0.64189061
C        0.91606151      -0.90478549       0.90901405
