194
Properties=species:S:1:pos:R:3 pbc="F F F"
C        5.79170985       3.48325722      -2.66949750
C        4.44724971       4.20182658      -2.59156188
C        3.30025090       3.23807242      -2.58685780
C        2.46413923       2.85641447      -3.63872074
N        1.62500673       1.88715089      -3.12127428
H        0.94350449       1.36857403      -3.65391009
C        1.77726157       1.77726157      -1.77726157
C        2.82607754       2.57355729      -1.38366501
C        3.35970848       2.73786160       0.01080760
C        2.72246000       3.90517007       0.75127483
C        2.27873442       3.26761211      -5.01293860
N        0.98753268       3.38135630      -5.48319974
H        0.15721175       3.26104997      -4.92198895
C        0.95880563       3.70998954      -6.79884057
C        2.25201288       3.86002452      -7.24935957
C        3.10504521       3.62036779      -6.08231633
C        4.59938894       3.74890981      -6.12079491
C        5.30988672       2.44822077      -6.44583315
C        2.74920147       4.26448272      -8.61534318
C        2.05214178       3.64031781      -9.81415474
H        6.61039358       4.20745945      -2.70363014
H        5.86098133       2.84375024      -3.55418521
H        5.95028384       2.83705539      -1.80059455
H        4.33958445       4.92775705      -3.40190875
H        4.42905494       4.80012419      -1.67340819
H        4.44488054       2.88024070      -0.01589137
H        3.19715430       1.81910441       0.58577309
H        2.96079743       4.85912988       0.26925940
H        3.09323677       3.94729425       1.78043434
H        1.63209287       3.81162305       0.78593843
H        4.97981073       4.14930057      -5.18639367
H        4.88237907       4.50342690      -6.86436764
H        5.13716056       1.69659394      -5.66922817
H        6.38942331       2.62008091      -6.51825722
H        4.96930193       2.03327009      -7.40016911
H        3.80645901       3.99048945      -8.70377432
H        2.70486850       5.35672538      -8.69466917
H        1.92195943       2.56089757      -9.69484012
H        2.64461077       3.81438475     -10.71923272
H        1.07570956       4.09522387      -9.99611171
C       -0.28028595       3.88914956      -7.51028540
C       -1.31802515       4.03919608      -8.10612045
Br      -2.99596166       4.28180861      -9.06953532
C       -2.64357727      -3.51875294      -5.78213435
C       -3.60066323      -2.81994114      -4.82003380
C       -3.00404811      -2.66676290      -3.45437012
C       -3.21545651      -3.43604177      -2.30777617
N       -2.36605422      -2.92136573      -1.34601194
H       -2.24059309      -3.30400121      -0.42139431
C       -1.77726157      -1.77726157      -1.77726157
C       -2.11187399      -1.57633200      -3.09509385
C       -1.66191624      -0.44719703      -3.97764921
C       -2.63101015       0.72660488      -3.97194997
C       -4.09653071      -4.52256109      -1.94019333
N       -4.67470166      -4.48853124      -0.68885583
H       -4.58045548      -3.72875337      -0.03104182
C       -5.42257963      -5.59467135      -0.45038476
C       -5.39312017      -6.40199930      -1.56627749
C       -4.57385917      -5.68608199      -2.54778817
C       -4.33709031      -6.19155385      -3.94044949
C       -3.08917383      -7.04490338      -4.06986343
C       -6.09784754      -7.71199626      -1.81918358
C       -6.10398078      -8.72111110      -0.68152246
H       -3.11277766      -3.64716389      -6.76154162
H       -2.34223694      -4.50341868      -5.41326116
H       -1.72513523      -2.94039104      -5.92240751
H       -4.55944819      -3.34259724      -4.76720481
H       -3.84075617      -1.83211051      -5.22972064
H       -1.53415007      -0.80110407      -5.00575847
H       -0.67314375      -0.09511618      -3.66222569
H       -3.60197816       0.44222740      -4.39091717
H       -2.23262015       1.54827025      -4.57574678
H       -2.80178175       1.10147934      -2.95747509
H       -4.29396606      -5.37141043      -4.65012847
H       -5.20360442      -6.77771234      -4.26885685
H       -2.18714146      -6.46503956      -3.85080165
H       -3.00496046      -7.43126625      -5.09153473
H       -3.11598189      -7.90012967      -3.38662957
H       -5.61902937      -8.21480659      -2.66688682
H       -7.12862974      -7.50129398      -2.12633932
H       -5.11423668      -8.83367599      -0.22978444
H       -6.42098437      -9.70049995      -1.05674392
H       -6.81832352      -8.44695645       0.09823483
C       -6.12847846      -5.78142618       0.79075563
C       -6.71966874      -5.93783334       1.83021070
Br      -7.67557341      -6.19073051       3.51092165
C       -5.69464106       2.47525145       3.77457205
C       -4.87218271       3.44190266       2.92655280
C       -3.47739212       2.94133816       2.70645084
C       -2.29667128       3.30359774       3.35900542
N       -1.30990376       2.49071627       2.83281187
H       -0.35138344       2.46900640       3.14559878
C       -1.77726157       1.77726157       1.77726157
C       -3.12991982       1.99168907       1.66169095
C       -4.05609010       1.38273374       0.64793864
C       -4.22137812       2.24823620      -0.59325908
C       -1.92134466       4.29775975       4.34018072
N       -0.72885179       4.96554893       4.15768801
H       -0.12582315       4.85917669       3.35525082
C       -0.46920083       5.81908394       5.17935097
C       -1.51339600       5.77130053       6.07670043
C       -2.47535854       4.82223942       5.51013136
C       -3.80046962       4.52206361       6.14656042
C       -3.75950186       3.34333115       7.10110762
C       -1.72269219       6.56117766       7.34515753
C       -0.51531201       6.73877805       8.25252427
H       -6.69695374       2.87684716       3.94768227
H       -5.22735931       2.28623319       4.74532429
H       -5.80195243       1.50376601       3.28221535
H       -4.85939437       4.44210938       3.36774649
H       -5.37515610       3.56666761       1.96076361
H       -5.03972844       1.20625181       1.09503236
H       -3.68739041       0.39524688       0.34784833
H       -4.69667475       3.20443478      -0.35044161
H       -4.85124975       1.73755589      -1.32870896
H       -3.25648047       2.46465176      -1.06335473
H       -4.56501968       4.35634812       5.39413716
H       -4.15389323       5.40658199       6.68969838
H       -3.51127648       2.41564337       6.57606282
H       -4.73787733       3.21331993       7.57656419
H       -3.01717076       3.49372560       7.89184477
H       -2.48639769       6.06217674       7.95214834
H       -2.12993313       7.54415603       7.08217389
H        0.02461781       5.79951068       8.40280424
H       -0.83924666       7.10648731       9.23249427
H        0.17883963       7.48561159       7.86027319
C        0.71948994       6.63138668       5.20725227
C        1.71501847       7.31169023       5.23061961
Br       3.32470390       8.41168353       5.26840263
C        3.03950880      -3.05328733       5.85166843
C        3.91318928      -2.66603571       4.66141318
C        3.12639896      -2.61110116       3.38768100
C        3.03387555      -3.55927197       2.36612692
N        2.11846335      -3.05246258       1.46250596
H        1.78868396      -3.53605123       0.64125342
C        1.77726157      -1.77726157       1.77726157
C        2.35056627      -1.44997426       2.98275931
C        2.21749593      -0.14847203       3.72079452
C        3.32857151       0.83579607       3.38357980
C        3.67903446      -4.81766910       2.06258157
N        4.04086197      -5.05741808       0.75380867
H        3.94751041      -4.39343814      -0.00069789
C        4.57463293      -6.29461951       0.59838330
C        4.61639314      -6.91965070       1.82535313
C        4.08077204      -5.94625286       2.78070443
C        4.00879213      -6.20315265       4.25714888
C        2.69146386      -6.81096783       4.70150894
C        5.16057359      -8.27908138       2.18937241
C        4.83522609      -9.42605829       1.24532995
H        3.64147540      -3.11764081       6.76236697
H        2.54487862      -4.01661018       5.69742798
H        2.24827202      -2.31683391       6.02282785
H        4.76617158      -3.34242189       4.56065679
H        4.35525238      -1.68369983       4.86363511
H        2.21297813      -0.32712642       4.80090805
H        1.25009648       0.31425913       3.49464827
H        4.30533209       0.45675251       3.70208834
H        3.15611799       1.78920302       3.89318172
H        3.38028865       1.02972140       2.30721025
H        4.20038891      -5.29508273       4.82003332
H        4.82587557      -6.87224696       4.55205108
H        1.85693602      -6.12664999       4.51939666
H        2.72378994      -7.02942366       5.77454784
H        2.48335540      -7.74683020       4.17255554
H        4.76247323      -8.57045974       3.16778981
H        6.24729620      -8.20068356       2.30828330
H        3.77850388      -9.43594810       0.96324514
H        5.06807612     -10.38128454       1.72886759
H        5.44206651      -9.38723055       0.33774809
C        5.03154368      -6.76955965      -0.68195432
C        5.41420643      -7.16732202      -1.75423708
Br       6.03293974      -7.81047013      -3.48802761
C       -0.00445707       0.01189536      -1.78238275
H       -0.66409135       0.67374010      -2.43557963
H        0.65740317      -0.63156657      -2.45157240
C       -0.90989263      -0.90692880      -0.91072765
C        0.90977584       0.90977584      -0.90977584
C       -0.00465871       1.77757030       0.00794375
H       -0.66225468       2.44313916      -0.64384735
H        0.64322798       2.43503045       0.67728295
C       -1.78241447       0.00034974      -0.00472694
H       -2.45427497      -0.65498947       0.64260836
H       -2.43311707       0.67328779      -0.65473579
C       -0.91132561       0.90220522       0.91563759
C       -0.01476271      -0.02253852       1.78660255
H       -0.67934791      -0.69751639       2.42135241
H        0.63392994       0.61504881       2.47327442
C        0.01484550      -1.77751727      -0.01636693
H        0.67870853      -2.42144646      -0.68295456
H       -0.62264859      -2.45592969       0.64226336
C        1.78714474       0.01002794       0.00389507
H        2.44202412       0.67113390       0.66197326
H        2.45385902      -0.65136977      -0.64189061
C        0.91606151      -0.90478549       0.90901405
