117
Properties=species:S:1:pos:R:3 pbc="F F F"
C        0.00000000       0.00000000       0.00000000
C        4.09305457      -2.61044905      -4.22723756
C        3.70103570      -2.49359354      -2.76735137
O        3.32528030      -1.13919001      -2.48048452
C        1.99534298      -0.90741624      -2.27021894
O        1.12074753      -1.75891366      -2.35569024
C        1.74536120       0.46928473      -1.86155896
C        0.86838268       0.86838268      -0.86838268
N        0.93497575       2.22203830      -0.73079586
H        0.40197899       2.76987774      -0.06923479
C        1.83609048       2.72225593      -1.62302480
C        2.36484837       1.67836099      -2.36356636
C        3.33209777       1.80975833      -3.44624514
O        4.20548820       2.66574522      -3.47796711
O        3.11268410       0.90324415      -4.44325303
C        3.98413556       1.00675662      -5.57755825
C        3.44508952       2.02673933      -6.56364607
H        4.43503027      -3.62321893      -4.45706367
H        4.89474253      -1.90564131      -4.46816406
H        3.24491666      -2.36852397      -4.87654362
H        4.56408278      -2.72749645      -2.13452938
H        2.91623121      -3.21518609      -2.52029393
H        4.01284381       0.02084075      -6.05194081
H        5.00964359       1.24495394      -5.27232368
H        2.42894990       1.76073634      -6.87312890
H        4.08113649       2.08104089      -7.45154202
H        3.38966150       3.02210703      -6.11209934
C        2.10201190       4.13202679      -1.74725006
C        2.32472109       5.31270989      -1.85128872
Br       2.68482301       7.22177459      -2.01951042
C       -3.05909130      -5.10464800       2.45389621
C       -1.71570330      -4.45208371       2.19299348
O       -1.72708312      -3.83669796       0.89720626
C       -1.75868467      -2.47104471       0.87158370
O       -1.82291437      -1.75983879       1.86522905
C       -1.63680641      -1.95367743      -0.48572106
C       -0.86838268      -0.86838268      -0.86838268
N       -0.95977142      -0.70975452      -2.21828398
H       -0.48936862       0.00492314      -2.75664604
C       -1.78258523      -1.66842879      -2.73035718
C       -2.24433490      -2.46583283      -1.69660799
C       -3.17876263      -3.57636373      -1.83297487
O       -3.22960106      -4.30609475      -2.81350472
O       -4.02440095      -3.66957963      -0.76520070
C       -5.01837585      -4.69991275      -0.85016184
C       -6.23519914      -4.19598819      -1.60428759
H       -3.05650412      -5.62686656       3.41449567
H       -3.29793734      -5.82319627       1.66386833
H       -3.85838661      -4.35595943       2.46140972
H       -0.93165414      -5.21697039       2.17750882
H       -1.46548244      -3.75138419       2.99552758
H       -5.30476177      -4.95563272       0.17476912
H       -4.61136488      -5.61029884      -1.30525750
H       -6.64013471      -3.29956145      -1.12311898
H       -7.01540212      -4.96155485      -1.63676244
H       -5.97662967      -3.91682516      -2.63041304
C       -2.10926165      -1.74109800      -4.13092910
C       -2.38285314      -1.80195846      -5.30390809
Br      -2.82522746      -1.90036468      -7.20051590
C       -1.96563013       5.78131421      -2.03710126
C       -0.77307920       4.90621409      -1.70449976
O       -1.05875728       4.13617223      -0.52835470
C       -1.27129092       2.79913663      -0.71228186
O       -1.27768825       2.24104555      -1.80120969
C       -1.42284173       2.09715839       0.55620478
C       -0.86838268       0.86838268       0.86838268
N       -1.18115643       0.55096167       2.15569181
H       -0.89391486      -0.29012276       2.63729943
C       -1.93966126       1.54736668       2.69434326
C       -2.13332001       2.53269707       1.74075863
C       -2.92507569       3.74357345       1.91945210
O       -3.02707499       4.33879413       2.98333140
O       -3.58150687       4.10077951       0.77689489
C       -4.43434584       5.24868111       0.88542349
C       -5.80566427       4.83925387       1.39055677
H       -1.75099116       6.41774553      -2.89986168
H       -2.22476006       6.41857760      -1.18607237
H       -2.84530170       5.16846105      -2.26082644
H        0.09256177       5.53619311      -1.47251564
H       -0.49860173       4.28636443      -2.56362710
H       -4.52794922       5.67565798      -0.11798183
H       -3.98526348       6.02063003       1.52102771
H       -6.24698356       4.08406770       0.73176388
H       -6.47556956       5.70241643       1.43573341
H       -5.74255309       4.39331967       2.38799512
C       -2.46053876       1.48534735       4.03540264
C       -2.89677365       1.43340617       5.15853986
Br      -3.60212859       1.34942168       6.97455776
C        3.74682109       2.58721997       4.55024196
C        3.43210103       2.52573549       3.06842799
O        3.13974986       1.17106678       2.69789174
C        1.83496089       0.88637066       2.40955546
O        0.91522879       1.68926452       2.49155984
C        1.67507973      -0.47830137       1.92282379
C        0.86838268      -0.86838268       0.86838268
N        1.01005773      -2.20853544       0.66921675
H        0.53804333      -2.74720993      -0.04416173
C        1.89128192      -2.70928517       1.58080412
C        2.33011618      -1.67997837       2.39668117
C        3.24943357      -1.81927455       3.51939311
O        4.16253851      -2.63264485       3.55401717
O        2.93652256      -0.97609753       4.54656119
C        3.75637334      -1.09481449       5.71726260
C        3.22278285      -2.18827663       6.62441544
H        4.02554204       3.60235401       4.84568698
H        4.57064624       1.91059652       4.79721557
H        2.88170518       2.27206961       5.14330074
H        4.31170109       2.83276698       2.49218160
H        2.62456298       3.22022770       2.81700377
H        3.71215981      -0.13397376       6.23949179
H        4.80616353      -1.26749370       5.45326398
H        2.18072389      -1.98762334       6.89446791
H        3.81719700      -2.25676861       7.53975379
H        3.23971969      -3.16099223       6.12315595
C        2.22201287      -4.10907107       1.65020481
C        2.49900004      -5.28139177       1.70832788
Br       2.94686487      -7.17693519       1.80230798
