106
Properties=species:S:1:pos:R:3 pbc="F F F"
C        1.78480692       1.78480692      -1.78480692
N        1.61634757       1.90424995      -3.10199278
N        2.61718094       2.74284924      -3.46944741
C        2.76342584       3.11204078      -4.87175753
C        3.78766426       2.25943718      -5.57933273
C        3.59598315       0.87499302      -5.71264449
C        4.53563192       0.08764108      -6.37917424
C        5.67368933       0.67460945      -6.92717828
C        5.87327613       2.04864525      -6.80857915
C        4.93604339       2.83845071      -6.13918316
C        3.35986570       3.17186581      -2.40209025
Br       4.80347473       4.34959134      -2.41677229
C        2.84699860       2.55519773      -1.28747994
H        3.02232140       4.17605080      -4.90861174
H        1.78464733       3.00388708      -5.35609653
H        2.71058831       0.39922979      -5.29237937
H        4.37734299      -0.98402330      -6.47023166
H        6.40402625       0.06076161      -7.44774006
H        6.76066130       2.50552005      -7.23950351
H        5.11271149       3.90912106      -6.06095176
H        3.18878221       2.64700035      -0.26698251
C       -1.78480692      -1.78480692      -1.78480692
N       -2.93819372      -2.31163152      -1.37276506
N       -3.35457669      -3.02854207      -2.44635884
C       -4.60756683      -3.76910455      -2.37055278
C       -4.38905866      -5.21974563      -2.01762989
C       -3.82182832      -5.57760663      -0.78418571
C       -3.63232341      -6.91928252      -0.45084131
C       -4.01419971      -7.91942409      -1.34185326
C       -4.58499964      -7.57886836      -2.56663253
C       -4.77278240      -6.23680055      -2.90409432
C       -2.50642253      -2.91238293      -3.51501629
Br      -2.68448744      -3.68376200      -5.20158892
C       -1.46493818      -2.11384466      -3.11089343
H       -5.11785515      -3.65564542      -3.33348337
H       -5.24135743      -3.28925256      -1.61402095
H       -3.51940045      -4.80877257      -0.07402445
H       -3.18682883      -7.18206659       0.50534408
H       -3.86788337      -8.96415639      -1.08048816
H       -4.88518982      -8.36088969      -3.25960535
H       -5.22202996      -5.99558782      -3.86516654
H       -0.60205684      -1.81364323      -3.68706499
C       -1.78480692       1.78480692       1.78480692
N       -1.45636256       2.13861409       3.02761364
N       -2.51899596       2.87820878       3.43227286
C       -2.52665855       3.44602051       4.77454510
C       -3.29047329       2.58540749       5.75055339
C       -2.86007566       1.28124460       6.04230040
C       -3.55755136       0.48948546       6.95541043
C       -4.68829728       0.99346203       7.59371774
C       -5.12268250       2.28874398       7.31907405
C       -4.42836381       3.08209884       6.40321462
C       -3.46261765       3.02082969       2.45037441
Br      -5.06189285       3.97288373       2.53506178
C       -3.01662886       2.30893917       1.36410824
H       -2.94705929       4.45540735       4.70451730
H       -1.48556413       3.55511300       5.10395381
H       -1.97642379       0.87147508       5.55429860
H       -3.21639527      -0.52062479       7.16778086
H       -5.22975252       0.37663863       8.30613677
H       -6.00373148       2.68151381       7.82043957
H       -4.78552875       4.09076177       6.20649380
H       -3.50738634       2.18551485       0.40986388
C        1.78480692      -1.78480692       1.78480692
N        3.00907935      -2.17945998       1.43405096
N        3.39897270      -2.95159570       2.47890920
C        4.71382795      -3.57982900       2.45356720
C        4.65173771      -5.00697838       1.96771808
C        4.21865724      -5.30019086       0.66477255
C        4.17428810      -6.61852509       0.20963406
C        4.56927446      -7.65873259       1.04747001
C        5.00810425      -7.38166109       2.34073518
C        5.05039896      -6.06343509       2.79984323
C        2.46094962      -2.99752403       3.47534809
Br       2.56979325      -3.89634248       5.10370263
C        1.38954353      -2.25288486       3.04724788
H        5.13338880      -3.51025999       3.46333515
H        5.36196093      -2.98651671       1.79615330
H        3.90823645      -4.49906819      -0.00510717
H        3.83155230      -6.83175842      -0.79975937
H        4.53610739      -8.68503244       0.69138809
H        5.31883234      -8.19455783       2.99229468
H        5.39835149      -5.87174644       3.81268639
H        0.46033861      -2.07427861       3.56814785
C       -0.00445707       0.01189536      -1.78238275
H       -0.66409135       0.67374010      -2.43557963
H        0.65740317      -0.63156657      -2.45157240
C       -0.90989263      -0.90692880      -0.91072765
C        0.90977584       0.90977584      -0.90977584
C       -0.00465871       1.77757030       0.00794375
H       -0.66225468       2.44313916      -0.64384735
H        0.64322798       2.43503045       0.67728295
C       -1.78241447       0.00034974      -0.00472694
H       -2.45427497      -0.65498947       0.64260836
H       -2.43311707       0.67328779      -0.65473579
C       -0.91132561       0.90220522       0.91563759
C       -0.01476271      -0.02253852       1.78660255
H       -0.67934791      -0.69751639       2.42135241
H        0.63392994       0.61504881       2.47327442
C        0.01484550      -1.77751727      -0.01636693
H        0.67870853      -2.42144646      -0.68295456
H       -0.62264859      -2.45592969       0.64226336
C        1.78714474       0.01002794       0.00389507
H        2.44202412       0.67113390       0.66197326
H        2.45385902      -0.65136977      -0.64189061
C        0.91606151      -0.90478549       0.90901405
