194
Properties=species:S:1:pos:R:3 pbc="F F F"
C        1.78354255       1.78354255      -1.78354255
C        3.03671943       2.26474727      -1.38714336
C        3.51443108       2.96544342      -2.47879336
N        2.47688049       2.96044147      -3.39358458
N        1.45964671       2.14463336      -3.02013136
C        2.37839814       3.65936014      -4.67423786
C        1.22586711       4.64420392      -4.73922788
C        0.78105254       5.36757442      -3.61977874
C       -0.29534489       6.25253935      -3.72139308
C       -0.92550251       6.44910713      -4.94717215
C       -0.47491189       5.76744964      -6.07466191
C        0.59586922       4.87577044      -5.97338354
C        4.79500342       3.58264311      -2.65152703
C        5.10160902       4.89399588      -2.96064327
C        6.50166724       4.93929577      -2.99579778
N        7.07009965       3.76930828      -2.72057229
N        6.01531449       2.94108442      -2.52486088
C        6.28184532       1.54977290      -2.17491937
C        6.32643962       0.65125193      -3.38483045
C        7.53714678       0.44177822      -4.06207934
C        7.59288610      -0.40334371      -5.17118291
C        6.43813820      -1.03821539      -5.62326469
C        5.22702803      -0.82905046      -4.96717398
C        5.17034020       0.00893576      -3.85234575
H        3.54063024       2.10042855      -0.44514124
H        2.25841797       2.87377038      -5.43009279
H        3.31489839       4.18281630      -4.87853388
H        1.24289387       5.22979489      -2.64455800
H       -0.64919082       6.77937154      -2.83866969
H       -1.76951954       7.12972561      -5.02228091
H       -0.96454437       5.92237619      -7.03274580
H        0.92381735       4.34835766      -6.86689498
H        4.40941704       5.70651006      -3.12888448
H        5.52876213       1.21021072      -1.45947014
H        7.23909485       1.52143952      -1.63885443
H        8.44693238       0.93723095      -3.72611042
H        8.53836050      -0.56515565      -5.68262593
H        6.48217190      -1.69585711      -6.48743008
H        4.32512226      -1.32267220      -5.32086544
H        4.21451265       0.14624411      -3.35209877
C        7.25400004       6.13121938      -3.29060869
C        7.88407876       7.12945540      -3.53751282
Br       8.90286276       8.74351862      -3.93673593
C       -1.78354255      -1.78354255      -1.78354255
C       -1.30136246      -2.50634165      -2.88090594
C       -2.39531438      -3.20055467      -3.36279882
N       -3.46638054      -2.75541803      -2.60910798
N       -3.08042148      -1.97483152      -1.56915843
C       -4.88874533      -3.05521863      -2.76803218
C       -5.73895300      -1.82856561      -3.04178030
C       -5.26778325      -0.72611394      -3.77450851
C       -6.08001881       0.39032362      -3.98889234
C       -7.38305116       0.41133294      -3.49905855
C       -7.87844081      -0.68726421      -2.80149464
C       -7.06506233      -1.80115266      -2.57880821
C       -2.44369858      -4.16797374      -4.41750123
C       -3.21510711      -4.17732074      -5.56382032
C       -2.84955070      -5.35118788      -6.23602221
N       -1.91170191      -6.04742094      -5.60085738
N       -1.67985705      -5.32096375      -4.48043899
C       -0.66725203      -5.79598604      -3.54329953
C       -1.25229978      -6.65733794      -2.45288427
C       -1.36275844      -8.04417931      -2.63406659
C       -1.88476293      -8.85257059      -1.62339179
C       -2.31352075      -8.28338875      -0.42627799
C       -2.22073816      -6.90604567      -0.23836771
C       -1.69094067      -6.09634402      -1.24433702
H       -0.28805333      -2.54285291      -3.25529380
H       -5.19486659      -3.53626440      -1.83115015
H       -5.02255169      -3.77720274      -3.57649414
H       -4.25140372      -0.70425455      -4.16158850
H       -5.68934006       1.24929211      -4.52880246
H       -8.00999207       1.28490140      -3.65739631
H       -8.89663617      -0.67289206      -2.42104938
H       -7.47218956      -2.64359847      -2.02328198
H       -3.93559959      -3.43446753      -5.87474445
H       -0.13608251      -4.93741616      -3.12494431
H        0.07851573      -6.35826230      -4.11964223
H       -1.03967789      -8.50333308      -3.56726278
H       -1.95725139      -9.92703573      -1.77154366
H       -2.72045173      -8.91350777       0.36021463
H       -2.55714626      -6.46110101       0.69493177
H       -1.61960819      -5.02565223      -1.06759511
C       -3.42161072      -5.76226362      -7.49195377
C       -3.90071099      -6.10653955      -8.54379644
Br      -4.67537560      -6.66320461     -10.24453709
C       -1.78354255       1.78354255       1.78354255
C       -3.16930751       1.89686729       1.62243526
C       -3.58179252       2.73775883       2.63911651
N       -2.41666727       3.16209985       3.25213942
N       -1.32303857       2.49495264       2.80642023
C       -2.24485469       4.16084112       4.30630032
C       -1.38144350       5.33732844       3.89052698
C       -1.35717361       5.83462855       2.57660354
C       -0.53418520       6.91045292       2.23394941
C        0.25547090       7.52305323       3.20319445
C        0.21699712       7.06619388       4.51800291
C       -0.59893784       5.98518059       4.86090477
C       -4.91563341       3.11527908       2.99826106
C       -5.46978142       4.37605162       3.11041514
C       -6.80279124       4.15344409       3.48052546
N       -7.10734939       2.86377583       3.58885501
N       -5.94019749       2.23607979       3.30498250
C       -5.91823901       0.77706498       3.31123361
C       -5.50172315       0.21427621       4.64652263
C       -6.46634786      -0.05451852       5.62917500
C       -6.09333994      -0.59369829       6.86108366
C       -4.75214516      -0.85839613       7.12943847
C       -3.78291677      -0.58459232       6.16682711
C       -4.15438447      -0.05341203       4.93064927
H       -3.79151809       1.40965882       0.88502313
H       -1.78898076       3.62538029       5.14792009
H       -3.22283182       4.52459157       4.62882517
H       -1.95251768       5.37264805       1.79208103
H       -0.50135489       7.26184749       1.20564804
H        0.90317347       8.35287672       2.93278373
H        0.83112602       7.54566158       5.27604206
H       -0.60493332       5.64097167       5.89316501
H       -4.98048223       5.32429737       2.94003197
H       -5.25986593       0.42572095       2.51285611
H       -6.92473186       0.43031191       3.04434503
H       -7.51789887       0.15451794       5.43785694
H       -6.85049561      -0.80623102       7.61156618
H       -4.46229433      -1.27782215       8.08927270
H       -2.73582413      -0.78905977       6.37655114
H       -3.37916085       0.14065787       4.19303681
C       -7.75327294       5.21002205       3.71253311
C       -8.54930136       6.09490610       3.90683952
Br      -9.83641199       7.52568875       4.22101656
C        1.78354255      -1.78354255       1.78354255
C        1.27684698      -2.72806006       2.68370301
C        2.39083992      -3.33490208       3.23292586
N        3.47074511      -2.63631966       2.72384178
N        3.11129934      -1.76167164       1.75144046
C        4.88781237      -2.76221550       3.06196826
C        5.49008213      -1.49015312       3.62906366
C        4.75705742      -0.59030274       4.42104555
C        5.34750063       0.57811501       4.90920192
C        6.68521245       0.85173381       4.63729813
C        7.43657181      -0.04658830       3.88403955
C        6.84573319      -1.21136398       3.38792602
C        2.44735440      -4.44029404       4.14152511
C        3.04848688      -4.52499856       5.38276273
C        2.78415732      -5.82831622       5.82428726
N        2.06178936      -6.53660278       4.96158807
N        1.87249028      -5.68144316       3.92732635
C        1.08311094      -6.13604155       2.78738511
C        1.93807999      -6.72849591       1.69594609
C        2.23925818      -8.09875105       1.70299511
C        3.01345810      -8.66043096       0.68683624
C        3.50548369      -7.85777062      -0.34006681
C        3.22399840      -6.49336179      -0.35220865
C        2.44260519      -5.93071538       0.65830115
H        0.24061819      -2.95955147       2.88603037
H        5.38946746      -3.04442185       2.12839184
H        5.02268188      -3.57730582       3.77626087
H        3.70694931      -0.76709631       4.64320115
H        4.75750111       1.28090361       5.49225290
H        7.14006848       1.76628802       5.00870651
H        8.48187391       0.16485542       3.67355913
H        7.45134348      -1.89331361       2.79441291
H        3.59474301      -3.74961698       5.90045159
H        0.48531215      -5.30227497       2.41085588
H        0.36381155      -6.87740580       3.15817144
H        1.86904114      -8.73806696       2.50316564
H        3.23293978      -9.72503666       0.69785434
H        4.10881731      -8.29578319      -1.13085563
H        3.60949750      -5.86612836      -1.15231037
H        2.22871261      -4.86515868       0.61898425
C        3.23847975      -6.35019306       7.08715530
C        3.61897479      -6.78726491       8.14480728
Br       4.23420309      -7.49397313       9.85494109
C       -0.00445707       0.01189536      -1.78238275
H       -0.66409135       0.67374010      -2.43557963
H        0.65740317      -0.63156657      -2.45157240
C       -0.90989263      -0.90692880      -0.91072765
C        0.90977584       0.90977584      -0.90977584
C       -0.00465871       1.77757030       0.00794375
H       -0.66225468       2.44313916      -0.64384735
H        0.64322798       2.43503045       0.67728295
C       -1.78241447       0.00034974      -0.00472694
H       -2.45427497      -0.65498947       0.64260836
H       -2.43311707       0.67328779      -0.65473579
C       -0.91132561       0.90220522       0.91563759
C       -0.01476271      -0.02253852       1.78660255
H       -0.67934791      -0.69751639       2.42135241
H        0.63392994       0.61504881       2.47327442
C        0.01484550      -1.77751727      -0.01636693
H        0.67870853      -2.42144646      -0.68295456
H       -0.62264859      -2.45592969       0.64226336
C        1.78714474       0.01002794       0.00389507
H        2.44202412       0.67113390       0.66197326
H        2.45385902      -0.65136977      -0.64189061
C        0.91606151      -0.90478549       0.90901405
