165
Properties=species:S:1:pos:R:3 pbc="F F F"
C        0.00000000       0.00000000       0.00000000
C        0.87363852       0.87363852      -0.87363852
C        2.12681540       1.35484325      -0.47723933
C        2.60452706       2.05553940      -1.56888933
N        1.56697647       2.05053745      -2.48368055
N        0.54974269       1.23472934      -2.11022734
C        1.46849411       2.74945611      -3.76433384
C        0.31596308       3.73429990      -3.82932386
C       -0.12885148       4.45767039      -2.70987472
C       -1.20524892       5.34263533      -2.81148906
C       -1.83540653       5.53920311      -4.03726813
C       -1.38481591       4.85754562      -5.16475788
C       -0.31403480       3.96586641      -5.06347951
C        3.88509939       2.67273908      -1.74162301
C        4.19170499       3.98409186      -2.05073925
C        5.59176322       4.02939175      -2.08589376
N        6.16019562       2.85940426      -1.81066827
N        5.10541047       2.03118040      -1.61495685
C        5.37194130       0.63986888      -1.26501535
C        5.41653559      -0.25865210      -2.47492642
C        6.62724276      -0.46812580      -3.15217532
C        6.68298208      -1.31324773      -4.26127889
C        5.52823418      -1.94811942      -4.71336066
C        4.31712401      -1.73895448      -4.05726995
C        4.26043617      -0.90096826      -2.94244172
Br       6.57286821       5.58375998      -2.47035188
H        2.63072622       1.19052453       0.46476278
H        1.34851394       1.96386636      -4.52018877
H        2.40499437       3.27291227      -3.96862986
H        0.33298985       4.31989087      -1.73465398
H       -1.55909484       5.86946752      -1.92876566
H       -2.67942357       6.21982158      -4.11237689
H       -1.87444839       5.01247216      -6.12284177
H        0.01391333       3.43845364      -5.95699096
H        3.49951302       4.79660603      -2.21898045
H        4.61885811       0.30030669      -0.54956612
H        6.32919082       0.61153549      -0.72895041
H        7.53702835       0.02732693      -2.81620639
H        7.62845648      -1.47505967      -4.77272190
H        5.57226787      -2.60576113      -5.57752606
H        3.41521824      -2.23257623      -4.41096142
H        3.30460863      -0.76365991      -2.44219475
C       -0.87363852      -0.87363852      -0.87363852
C       -0.83953348      -0.84670699      -2.27265751
C       -1.73867986      -1.81739941      -2.67287652
N       -2.33125507      -2.26432206      -1.50561734
N       -1.72689889      -1.77236728      -0.39543319
C       -3.44525899      -3.19697507      -1.34005000
C       -4.64808495      -2.58594517      -0.64555672
C       -5.00701700      -1.23580967      -0.79586695
C       -6.11393671      -0.71078190      -0.12415686
C       -6.89461043      -1.53163293       0.68517865
C       -6.57448652      -2.88032838       0.81732731
C       -5.46311420      -3.40535812       0.15316120
C       -2.02481268      -2.27555093      -3.99909787
C       -3.23300832      -2.32589841      -4.66762937
C       -2.92608498      -2.85098015      -5.92998359
N       -1.63170679      -3.11040698      -6.08815438
N       -1.09002196      -2.76742870      -4.89409706
C        0.35204389      -2.90787799      -4.72099142
C        0.73237023      -4.23974715      -4.12543301
C        0.98725686      -5.33764166      -4.96090747
C        1.35895953      -6.56942697      -4.42054579
C        1.46783692      -6.72132950      -3.03998285
C        1.20548828      -5.64233580      -2.19859196
C        0.84200402      -4.40691239      -2.73700127
Br      -4.20577423      -3.14974047      -7.27146536
H       -0.22265386      -0.22638718      -2.90744693
H       -3.04466018      -4.03337142      -0.75453747
H       -3.74727238      -3.58337757      -2.31588655
H       -4.41276459      -0.56370239      -1.41106771
H       -6.35870571       0.34375223      -0.22418486
H       -7.74899482      -1.11927707       1.21549699
H       -7.18507635      -3.52263330       1.44684410
H       -5.22838089      -4.46036690       0.27938986
H       -4.20017278      -2.01788144      -4.29704528
H        0.72085450      -2.08213724      -4.10744818
H        0.81717469      -2.78005581      -5.70679560
H        0.89843256      -5.23729994      -6.04169429
H        1.56271226      -7.41071401      -5.07811695
H        1.75685335      -7.68108487      -2.61980128
H        1.28830328      -5.76093692      -1.12096979
H        0.65351308      -3.57823023      -2.05842631
C       -0.87363852       0.87363852       0.87363852
C       -1.86414145       0.37000261       1.72475392
C       -2.38209485       1.47808132       2.36877963
N       -1.76173585       2.56319113       1.77626749
N       -0.75773079       2.19513854       0.94183004
C       -2.01876881       3.98898365       1.97453160
C       -2.46181572       4.70536884       0.71240227
C       -3.23643987       4.08375593      -0.28150217
C       -3.60847633       4.77669384      -1.43629470
C       -3.23645877       6.10785866      -1.60325273
C       -2.49915751       6.75039120      -0.61206113
C       -2.11898003       6.05675855       0.53957254
C       -3.35667089       1.52589191       3.41689869
C       -4.56104386       2.20152195       3.46397029
C       -5.10352349       1.88656974       4.71695549
N       -4.33620005       1.06602152       5.42804658
N       -3.26131093       0.86210266       4.62813413
C       -2.20524517      -0.02778930       5.09936965
C       -1.10445756       0.71451927       5.81383309
C       -1.18355981       0.92979012       7.19794235
C       -0.16071996       1.59856342       7.87172986
C        0.94569075       2.07037886       7.16878731
C        1.03070083       1.87401885       5.79212146
C        0.01310385       1.19776772       5.11724577
Br      -6.75188798       2.54343675       5.33165534
H       -2.14534866      -0.66291831       1.87405762
H       -1.07658435       4.40917343       2.34681129
H       -2.77573796       4.11998604       2.75081249
H       -3.53463134       3.04172508      -0.18882172
H       -4.17920492       4.27142827      -2.21149485
H       -3.51747450       6.64226239      -2.50696198
H       -2.21059561       7.79056222      -0.74029229
H       -1.53548192       6.57817179       1.29570421
H       -4.99127864       2.82799421       2.69582665
H       -1.81216599      -0.59626678       4.25283171
H       -2.66830957      -0.76560546       5.76697261
H       -2.04578439       0.57440439       7.76037289
H       -0.22859798       1.75172744       8.94579329
H        1.74167102       2.59160831       7.69409551
H        1.89300573       2.24387738       5.24273177
H        0.10957394       1.04835369       4.04436372
C        0.87363852      -0.87363852       0.87363852
C        0.72247699      -0.97496951       2.26145148
C        1.66900490      -1.90046013       2.65949076
N        2.39306968      -2.19089391       1.51723087
N        1.84031978      -1.65281682       0.40156277
C        3.59592411      -3.01032319       1.37603676
C        4.79216728      -2.24285304       0.84456652
C        5.01521046      -0.88669959       1.13678358
C        6.12208699      -0.21451088       0.61227759
C        7.03694137      -0.89270180      -0.18857846
C        6.85079834      -2.24586476      -0.45917551
C        5.74012192      -2.91774564       0.05744356
C        1.88511974      -2.45046228       3.96387946
C        3.03396794      -2.46106817       4.73149999
C        2.67265798      -3.12049251       5.91389823
N        1.39810660      -3.49846331       5.93369824
N        0.92779076      -3.09560239       4.72815457
C       -0.47680003      -3.33794523       4.41568032
C       -0.68614741      -4.63785914       3.68109819
C       -0.90946046      -5.82335813       4.39739461
C       -1.12374229      -7.02816347       3.72659205
C       -1.10483033      -7.06427291       2.33403285
C       -0.87193234      -5.89639214       1.61097968
C       -0.66597344      -4.68847580       2.27940727
Br       3.85944428      -3.43205239       7.33548339
H        0.00249300      -0.46674417       2.88725080
H        3.32126694      -3.82099925       0.69030288
H        3.85015398      -3.45643170       2.33995082
H        4.31465799      -0.32345823       1.74941847
H        6.26240927       0.84335721       0.82008628
H        7.89162944      -0.36574998      -0.60460451
H        7.56607455      -2.77690100      -1.08211001
H        5.61195528      -3.97291477      -0.17551212
H        3.99682406      -2.04272186       4.47555358
H       -0.86642291      -2.49367721       3.84147661
H       -1.03089123      -3.33753457       5.36303338
H       -0.91904058      -5.81323378       5.48636847
H       -1.30466503      -7.93882782       4.29195592
H       -1.27126494      -8.00303317       1.81226457
H       -0.85501248      -5.92443045       0.52418546
H       -0.49734585      -3.78969579       1.69079352
