173
Properties=species:S:1:pos:R:3 pbc="F F F"
C        0.00000000       0.00000000       0.00000000
C        0.87363852       0.87363852      -0.87363852
C        2.12681540       1.35484325      -0.47723933
C        2.60452706       2.05553940      -1.56888933
N        1.56697647       2.05053745      -2.48368055
N        0.54974269       1.23472934      -2.11022734
C        1.46849411       2.74945611      -3.76433384
C        0.31596308       3.73429990      -3.82932386
C       -0.12885148       4.45767039      -2.70987472
C       -1.20524892       5.34263533      -2.81148906
C       -1.83540653       5.53920311      -4.03726813
C       -1.38481591       4.85754562      -5.16475788
C       -0.31403480       3.96586641      -5.06347951
C        3.88509939       2.67273908      -1.74162301
C        4.19170499       3.98409186      -2.05073925
C        5.59176322       4.02939175      -2.08589376
N        6.16019562       2.85940426      -1.81066827
N        5.10541047       2.03118040      -1.61495685
C        5.37194130       0.63986888      -1.26501535
C        5.41653559      -0.25865210      -2.47492642
C        6.62724276      -0.46812580      -3.15217532
C        6.68298208      -1.31324773      -4.26127889
C        5.52823418      -1.94811942      -4.71336066
C        4.31712401      -1.73895448      -4.05726995
C        4.26043617      -0.90096826      -2.94244172
H        2.63072622       1.19052453       0.46476278
H        1.34851394       1.96386636      -4.52018877
H        2.40499437       3.27291227      -3.96862986
H        0.33298985       4.31989087      -1.73465398
H       -1.55909484       5.86946752      -1.92876566
H       -2.67942357       6.21982158      -4.11237689
H       -1.87444839       5.01247216      -6.12284177
H        0.01391333       3.43845364      -5.95699096
H        3.49951302       4.79660603      -2.21898045
H        4.61885811       0.30030669      -0.54956612
H        6.32919082       0.61153549      -0.72895041
H        7.53702835       0.02732693      -2.81620639
H        7.62845648      -1.47505967      -4.77272190
H        5.57226787      -2.60576113      -5.57752606
H        3.41521824      -2.23257623      -4.41096142
H        3.30460863      -0.76365991      -2.44219475
C        6.34409602       5.22131536      -2.38070466
C        6.97417473       6.21955138      -2.62760880
Br       7.99295873       7.83361460      -3.02683190
C       -0.87363852      -0.87363852      -0.87363852
C       -0.39107096      -1.59807752      -1.96974950
C       -1.48524282      -2.29165502      -2.45205795
N       -2.55662761      -1.84462404      -1.69994282
N       -2.17093733      -1.06335845      -0.66040359
C       -3.97913741      -2.14311310      -1.86003355
C       -4.82778551      -0.91586336      -2.13593797
C       -4.35471025       0.18533674      -2.86932012
C       -5.16556241       1.30239340      -3.08570646
C       -6.46907995       1.32526413      -2.59724889
C       -6.96633457       0.22790715      -1.89906017
C       -6.15434546      -0.88659297      -1.67437269
C       -1.53353742      -3.26011870      -3.50580537
C       -2.30376501      -3.26985606      -4.65291503
C       -1.93873096      -4.44479980      -5.32351796
N       -1.00226585      -5.14134559      -4.68665671
N       -0.77082938      -4.41396568      -3.56675266
C        0.24030829      -4.88906477      -2.62806904
C       -0.34676559      -5.74867553      -1.53736880
C       -0.45847705      -7.13558900      -1.71722622
C       -0.98236993      -7.94238748      -0.70625582
C       -1.41177845      -7.37151739       0.48982042
C       -1.31775990      -5.99407686       0.67639728
C       -0.78607753      -5.18597121      -0.32986089
H        0.62258774      -1.63602949      -2.34304621
H       -4.28673060      -2.62286717      -0.92297130
H       -4.11285465      -2.86579757      -2.66788428
H       -3.33790733       0.20573896      -3.25536633
H       -4.77343119       2.16039448      -3.62610163
H       -7.09494816       2.19931786      -2.75714460
H       -7.98490878       0.24373140      -1.51968817
H       -6.56292418      -1.72803809      -1.11839566
H       -3.02316214      -2.52657887      -4.96535849
H        0.77193508      -4.03061247      -2.21005353
H        0.98608924      -5.45271333      -3.20305263
H       -0.13490530      -7.59604723      -2.64960914
H       -1.05582094      -9.01693016      -0.85336761
H       -1.82018004      -8.00039617       1.27654340
H       -1.65467404      -5.54781378       1.60888439
H       -0.71381610      -4.11517098      -0.15415639
C       -2.50991389      -4.85658627      -6.57961587
C       -2.98827959      -5.20145744      -7.63159787
Br      -3.76175648      -5.75908496      -9.33256379
C       -0.87363852       0.87363852       0.87363852
C       -2.25320177       1.01880496       0.68689125
C       -2.66949759       1.84728808       1.71217012
N       -1.50893519       2.23497365       2.35728563
N       -0.42005932       1.55453406       1.92010599
C       -1.33875717       3.20841099       3.43511590
C       -0.44330514       4.37498458       3.06129712
C       -0.38183577       4.89816970       1.75868816
C        0.46966238       5.96347757       1.45506027
C        1.25136405       6.53989032       2.45253843
C        1.17649698       6.05740457       3.75658000
C        0.33193919       4.98675921       4.06049110
C       -4.00255882       2.24493668       2.05196598
C       -4.53327336       3.51435979       2.17890295
C       -5.87787727       3.31189254       2.51727892
N       -6.21064945       2.02686292       2.59275578
N       -5.05082620       1.38106324       2.31965828
C       -5.05853717      -0.07792141       2.29620976
C       -4.68117210      -0.67610632       3.62774414
C       -5.67113422      -0.94474998       4.58490803
C       -5.33464531      -1.51634449       5.81271241
C       -4.00491307      -1.81407068       6.10263304
C       -3.01066183      -1.54092079       5.16569843
C       -3.34568488      -0.97726781       3.93349257
H       -2.86977936       0.55957997      -0.07287136
H       -0.91129876       2.64672158       4.27454874
H       -2.31562569       3.58568504       3.74522577
H       -0.97007421       4.46456064       0.95289984
H        0.53083480       6.33486021       0.43511293
H        1.92117804       7.36145917       2.21249378
H        1.78441346       6.50864148       4.53663752
H        0.29765403       4.62192473       5.08508724
H       -4.02146602       4.45554918       2.03808431
H       -4.39105737      -0.42656011       1.50423366
H       -6.06611384      -0.39833455       2.00189744
H       -6.71406195      -0.71020484       4.37670456
H       -6.11129007      -1.72833651       6.54316515
H       -3.74350187      -2.25873670       7.05926763
H       -1.97247837      -1.77117927       5.39230432
H       -2.55161931      -0.78436465       3.21588880
C       -6.81136873       4.38296836       2.75177894
C       -7.59316783       5.27999437       2.94817271
Br      -8.85727085       6.73040955       3.26572483
C        0.87363852      -0.87363852       0.87363852
C        0.62826623      -2.23339552       1.09723622
C        1.67291113      -2.66065403       1.89539063
N        2.39194531      -1.51689603       2.19235313
N        1.97383763      -0.44132438       1.47953736
C        3.52458510      -1.35479200       3.10290696
C        3.25381321      -0.38644471       4.23932892
C        1.98381346      -0.23403362       4.82084655
C        1.77582153       0.68204017       5.85509411
C        2.83766395       1.43912318       6.34252394
C        4.11050675       1.27523428       5.80221512
C        4.31884534       0.36581257       4.76227836
C        1.96780867      -3.98850422       2.34314860
C        2.13310389      -4.46322270       3.63020951
C        2.39566855      -5.83141079       3.47996938
N        2.38992692      -6.22906231       2.21127892
N        2.14066927      -5.08934977       1.52152868
C        2.04309472      -5.16610492       0.06762589
C        3.35928455      -4.88582774      -0.61230236
C        4.25285395      -5.93473172      -0.87629341
C        5.46494417      -5.68870273      -1.52263367
C        5.80312033      -4.39122040      -1.90086531
C        4.93016530      -3.33884423      -1.63357006
C        3.71335317      -3.58357064      -0.99501417
H       -0.18256179      -2.83214149       0.70690827
H        4.35413338      -0.99789048       2.48054521
H        3.80598884      -2.32679844       3.51374922
H        1.12973258      -0.80094775       4.45685436
H        0.78009898       0.81254560       6.27158496
H        2.67202091       2.15900382       7.13975781
H        4.94075897       1.86392893       6.18403550
H        5.32083122       0.26220885       4.35073556
H        2.06488840      -3.90022319       4.54998792
H        1.26755323      -4.47697466      -0.27579697
H        1.68477669      -6.17175923      -0.18685919
H        4.00680846      -6.95328621      -0.57953300
H        6.14549322      -6.51061289      -1.72998741
H        6.74750946      -4.20025541      -2.40373207
H        5.19455671      -2.32574704      -1.92670032
H        3.04549477      -2.74585138      -0.80820269
C        2.63883603      -6.72291472       4.58436529
C        2.84248879      -7.46954926       5.50929686
Br       3.17177808      -8.67679416       7.00483299
