130
Properties=species:S:1:pos:R:3 pbc="F F F"
C        1.78508277       1.78508277      -1.78508277
C        2.89141492       1.30292895      -2.43376662
C        3.51268581       2.35203898      -3.17837218
C        2.86127103       3.55096479      -3.06009689
S        1.45800167       3.43214173      -2.02675717
C        3.48374857       4.59864063      -3.80527200
C        4.59897062       4.13397445      -4.46547105
S        4.91265558       2.47096762      -4.20934732
C        5.43541422       4.94167439      -5.29409842
C        6.14578965       5.60988274      -5.99298697
C        7.05492993       6.46029750      -6.88640568
C        7.75703276       7.13907805      -7.58309709
C        8.57605979       7.96925814      -8.40729814
S        8.23158975       9.62948965      -8.64234597
C        9.62291805       9.78479529      -9.67973320
C       10.29480013       8.59912692      -9.81539539
C        9.69545963       7.53191537      -9.07879251
S       11.68948111       8.75518748     -10.85530725
C       11.33168040      10.39898719     -11.07659395
C       10.22072511      10.85319586     -10.41576603
H        3.24601610       0.28110828      -2.39178903
H        3.12560102       5.62010119      -3.84472647
H       10.07170334       6.51665760      -9.05305446
H        9.84735628      11.86879517     -10.44380932
C       12.14341716      11.25393560     -11.90348369
C       12.82324670      11.96995489     -12.59600386
Br      13.92247356      13.12769752     -13.71575038
C       -1.78508277      -1.78508277      -1.78508277
C       -3.09820264      -1.48914628      -2.04076156
C       -3.66379702      -2.48808596      -2.89121399
C       -2.77151969      -3.47008707      -3.23072595
S       -1.20100954      -3.20071461      -2.51517642
C       -3.33869717      -4.46787662      -4.08108741
C       -4.65962685      -4.18838928      -4.35039999
S       -5.23055214      -2.75717431      -3.60524407
C       -5.49993504      -4.99936293      -5.17188906
C       -6.21597445      -5.67237804      -5.86030686
C       -7.13307577      -6.52943018      -6.73912715
C       -7.83856002      -7.21067505      -7.42997283
C       -8.65665293      -8.03914325      -8.25681990
S       -8.05172919      -9.46396118      -8.98773500
C       -9.60453258      -9.76371928      -9.71919468
C      -10.51795086      -8.79602774      -9.39534383
C       -9.97886594      -7.78417332      -8.54312825
S      -12.07442408      -9.09686172     -10.12869004
C      -11.45669563     -10.50551591     -10.84505000
C      -10.14177693     -10.77640665     -10.57150342
H       -3.63197814      -0.62868832      -1.65824696
H       -2.80098832      -5.32757923      -4.46186112
H      -10.53596750      -6.93226436      -8.17318355
H       -9.58792235     -11.62892108     -10.94311734
C      -12.26352105     -11.35484101     -11.68247439
C      -12.93923733     -12.06615079     -12.38381732
Br     -14.03181342     -13.21627853     -13.51782952
C       -1.78508277       1.78508277       1.78508277
C       -1.46419123       3.08407367       2.07984558
C       -2.46991133       3.65350696       2.91967869
C       -3.48102178       2.77771067       3.21360025
S       -3.23172739       1.21856827       2.46660492
C       -4.48565075       3.34876047       4.05324997
C       -4.18146386       4.65570584       4.36124642
S       -2.71893771       5.20890347       3.66512934
C       -4.99236355       5.49597216       5.18285132
C       -5.66525356       6.21194074       5.87146505
C       -6.52235570       7.12907036       6.75020705
C       -7.20429636       7.83494856       7.43996298
C       -8.03453231       8.65404232       8.26404144
S       -9.49243301       8.06784929       8.94314307
C       -9.77452868       9.61065261       9.70226526
C       -8.77679971      10.50706439       9.42545833
C       -7.75559128       9.96268344       8.58789279
S       -9.05986577      12.05347782      10.18663226
C      -10.50193003      11.45466539      10.85066611
C      -10.79675823      10.15329953      10.53962923
H       -0.58208793       3.60559406       1.73123143
H       -5.36713429       2.82338348       4.39991091
H       -6.88094036      10.50690904       8.25356601
H      -11.67210497       9.61237207      10.87548374
C      -11.35412980      12.26311838      11.68358827
C      -12.06784711      12.94019775      12.38116058
Br     -13.22186763      14.03497784      13.50907600
C        1.78508277      -1.78508277       1.78508277
C        1.45729978      -3.07975325       2.09105745
C        2.46487547      -3.65035066       2.92787084
C        3.48401304      -2.77958732       3.20873235
S        3.24029197      -1.22393759       2.45267102
C        4.49048525      -3.35179485       4.04538110
C        4.17944312      -4.65444413       4.36452887
S        2.70834365      -5.20226345       3.68236343
C        4.99021471      -5.49463527       5.18633705
C        5.66291695      -6.21049343       5.87524897
C        6.51975556      -7.12747105       6.75440650
C        7.20158549      -7.83329424       7.44432818
C        8.03185550      -8.65243097       8.26832961
S        9.49843906      -8.07170300       8.93328331
C        9.77515659      -9.61115847       9.70113148
C        8.76937656     -10.50251124       9.43743463
C        7.74615636      -9.95684186       8.60316930
S        9.04705380     -12.04556923      10.20735280
C       10.49778409     -11.45221642      10.85726102
C       10.79940843     -10.15510238      10.53517619
H        0.56922523      -3.59752983       1.75215836
H        5.37795308      -2.83017102       4.38230459
H        6.86547651     -10.49727581       8.27866309
H       11.68077193      -9.61796070      10.86122814
C       11.35015158     -12.26080435      11.68988052
C       12.06400935     -12.93799675      12.38719935
Br      13.21825698     -14.03295958      13.51470492
C       -0.00445707       0.01189536      -1.78238275
H       -0.66409135       0.67374010      -2.43557963
H        0.65740317      -0.63156657      -2.45157240
C       -0.90989263      -0.90692880      -0.91072765
C        0.90977584       0.90977584      -0.90977584
C       -0.00465871       1.77757030       0.00794375
H       -0.66225468       2.44313916      -0.64384735
H        0.64322798       2.43503045       0.67728295
C       -1.78241447       0.00034974      -0.00472694
H       -2.45427497      -0.65498947       0.64260836
H       -2.43311707       0.67328779      -0.65473579
C       -0.91132561       0.90220522       0.91563759
C       -0.01476271      -0.02253852       1.78660255
H       -0.67934791      -0.69751639       2.42135241
H        0.63392994       0.61504881       2.47327442
C        0.01484550      -1.77751727      -0.01636693
H        0.67870853      -2.42144646      -0.68295456
H       -0.62264859      -2.45592969       0.64226336
C        1.78714474       0.01002794       0.00389507
H        2.44202412       0.67113390       0.66197326
H        2.45385902      -0.65136977      -0.64189061
C        0.91606151      -0.90478549       0.90901405
