170
Properties=species:S:1:pos:R:3 pbc="F F F"
C        5.81169071       2.32024707      -5.12192086
C        4.95646650       3.53425534      -5.58658029
C        4.31220033       4.32948014      -4.31623988
C        3.42448455       3.43508401      -3.41898281
C        3.94999339       2.73502409      -2.31394337
C        3.14551206       1.92100438      -1.50891291
C        1.79104160       1.79104160      -1.79104160
C        1.23896515       2.46094360      -2.87477563
C        2.04852463       3.26905966      -3.68082763
N        5.41946668       4.95077790      -3.51969297
C        3.51761671       5.58740200      -4.77277020
C        3.90050424       3.08710586      -6.62488114
C        3.52361557       3.91079468      -7.70559781
C        2.56460687       3.50150188      -8.63930142
C        1.95794570       2.25813119      -8.50925370
C        2.29739900       1.42494860      -7.45120943
C        3.25574905       1.83832192      -6.51909294
Br       0.66281131       1.70426897      -9.76788135
N        5.99779140       4.39852174      -6.23127534
H        5.24020060       1.59567601      -4.53491194
H        6.66118823       2.62665370      -4.49973464
H        6.22700780       1.77434193      -5.98000166
H        5.00174124       2.81203593      -2.05138789
H        3.58826076       1.40123000      -0.66299760
H        0.18043407       2.36680253      -3.10545709
H        1.57365878       3.76350972      -4.52523395
H        6.01465850       5.42949273      -4.20493601
H        6.03478799       4.21481676      -3.18299807
H        4.15019765       6.31212043      -5.29900938
H        3.07980905       6.11213857      -3.91286449
H        2.69233323       5.34830947      -5.44919670
H        3.96013856       4.89684540      -7.84182811
H        2.29934837       4.16334207      -9.45996264
H        1.82347752       0.45339543      -7.33485223
H        3.47413080       1.16024265      -5.69695705
H        5.57937801       5.26964564      -6.54511338
H        6.33990713       3.92166140      -7.06615493
C       -2.74798507      -6.40516441      -4.10070916
C       -4.21287784      -5.89803494      -3.96638936
C       -4.32770960      -4.30974377      -4.32046698
C       -3.42958036      -3.41684841      -3.43212260
C       -2.11101850      -3.08420428      -3.80373808
C       -1.29890656      -2.28236992      -2.99415287
C       -1.79104160      -1.79104160      -1.79104160
C       -3.08319128      -2.10231522      -1.38917786
C       -3.88970027      -2.90964494      -2.19906671
N       -4.00772324      -4.11100653      -5.77120778
C       -5.80232300      -3.81581318      -4.25965273
C       -4.78396223      -6.25484175      -2.57368727
C       -6.13620496      -6.61130585      -2.39249727
C       -6.64726883      -6.92926454      -1.12887679
C       -5.81539774      -6.89354676      -0.01638609
C       -4.48045839      -6.53682756      -0.15627107
C       -3.97361939      -6.21841050      -1.42113402
Br      -6.50343799      -7.32151496       1.68999132
N       -4.89862234      -6.69166604      -5.03730009
H       -2.05031931      -5.87100460      -3.44946465
H       -2.36558472      -6.29896281      -5.12302904
H       -2.67008851      -7.46982943      -3.84143345
H       -1.68644144      -3.44001251      -4.73871110
H       -0.28890553      -2.04494379      -3.31863904
H       -3.47914763      -1.72377967      -0.44976639
H       -4.88974685      -3.13627916      -1.83637644
H       -4.56330028      -4.81284235      -6.27294461
H       -3.05805347      -4.42981348      -5.94473589
H       -6.44680450      -4.33706778      -4.97745519
H       -5.87018517      -2.74410595      -4.49052100
H       -6.25866619      -3.95542599      -3.27574722
H       -6.82858500      -6.64036954      -3.22985754
H       -7.69530854      -7.19984632      -1.02749821
H       -3.82224832      -6.49766027       0.70818341
H       -2.92737136      -5.92596910      -1.47799003
H       -5.87610833      -6.42082687      -5.09720183
H       -4.88446692      -7.67577103      -4.76748552
C       -2.53297974       4.49188889       6.22899001
C       -3.47846846       5.30257050       5.29626318
C       -4.32832945       4.31933923       4.31025167
C       -3.43562573       3.42112368       3.42180196
C       -3.02730972       2.13664192       3.83500921
C       -2.21366242       1.32985014       3.03191678
C       -1.79104160       1.79104160       1.79104160
C       -2.16848484       3.05339068       1.35280885
C       -2.97719264       3.85927902       2.16194026
N       -5.26187464       3.48941033       5.13865258
C       -5.32898593       5.12084007       3.42796290
C       -2.68560551       6.39142810       4.53545763
C       -3.24533962       7.65212474       4.24254371
C       -2.52361980       8.63142541       3.55036496
C       -1.22486241       8.36838556       3.13208262
C       -0.64539766       7.13376344       3.39439593
C       -1.37070451       6.15686573       4.08559367
Br      -0.24946790       9.68845393       2.19703981
N       -4.41006441       5.92618021       6.29134386
H       -1.81543389       3.87681413       5.67854054
H       -3.08578953       3.81269162       6.88909542
H       -1.94672927       5.15751003       6.87711209
H       -3.33908715       1.73189488       4.79418302
H       -1.92427820       0.34324932       3.38496084
H       -1.84381177       3.42508915       0.38379277
H       -3.23626310       4.84471740       1.78142196
H       -5.73000988       4.15023838       5.76883898
H       -4.71535052       2.92945703       5.78779528
H       -6.06756209       5.66744713       4.02631824
H       -5.89079719       4.45301958       2.76099534
H       -4.83750102       5.86140879       2.79092959
H       -4.26182973       7.89980061       4.53718174
H       -2.98783171       9.59226052       3.34256084
H        0.36710799       6.91391274       3.06492042
H       -0.88223479       5.19890236       4.25019334
H       -5.12796495       6.45837055       5.80780153
H       -3.88076812       6.59361063       6.85334472
C        5.34564204      -5.61957145       2.28864516
C        5.67380500      -4.82060037       3.58289676
C        4.31512996      -4.31311160       4.32967879
C        3.41833619      -3.42554808       3.43466710
C        2.39778039      -3.97140911       2.62977135
C        1.59335539      -3.16631849       1.81575546
C        1.79104160      -1.79104160       1.79104160
C        2.79049645      -1.21803781       2.56615011
C        3.59665476      -2.02772162       3.37403554
N        3.55747343      -5.50794459       4.82451953
C        4.63651631      -3.57800005       5.66327254
C        6.66463149      -3.67332346       3.27453629
C        7.66318622      -3.28533042       4.19149142
C        8.55401631      -2.24376105       3.90763282
C        8.46218421      -1.56397463       2.69917175
C        7.48427742      -1.91261824       1.77666137
C        6.59472516      -2.95370694       2.06473181
Br       9.66299199      -0.15741483       2.31455482
N        6.33139600      -5.87504961       4.42114286
H        4.76837895      -5.03872696       1.56368264
H        4.76410527      -6.52545533       2.49801596
H        6.26260251      -5.94199334       1.77675554
H        2.20249249      -5.04044859       2.62222397
H        0.81382552      -3.62556224       1.21310060
H        2.95467208      -0.14310306       2.55491855
H        4.37411490      -1.53488400       3.95340355
H        4.24969521      -6.08957825       5.30981379
H        3.31030182      -6.09222669       4.03007432
H        5.15738559      -4.22352586       6.38041601
H        3.71755874      -3.23187016       6.15538321
H        5.26943941      -2.69734165       5.52305834
H        7.76595741      -3.77794361       5.15491104
H        9.31140124      -1.97243524       4.63881660
H        7.39785238      -1.38248917       0.83138363
H        5.83373368      -3.17735380       1.32024302
H        6.56055714      -5.49740228       5.33617761
H        7.21594668      -6.13071274       3.98106405
C       -0.00445707       0.01189536      -1.78238275
H       -0.66409135       0.67374010      -2.43557963
H        0.65740317      -0.63156657      -2.45157240
C       -0.90989263      -0.90692880      -0.91072765
C        0.90977584       0.90977584      -0.90977584
C       -0.00465871       1.77757030       0.00794375
H       -0.66225468       2.44313916      -0.64384735
H        0.64322798       2.43503045       0.67728295
C       -1.78241447       0.00034974      -0.00472694
H       -2.45427497      -0.65498947       0.64260836
H       -2.43311707       0.67328779      -0.65473579
C       -0.91132561       0.90220522       0.91563759
C       -0.01476271      -0.02253852       1.78660255
H       -0.67934791      -0.69751639       2.42135241
H        0.63392994       0.61504881       2.47327442
C        0.01484550      -1.77751727      -0.01636693
H        0.67870853      -2.42144646      -0.68295456
H       -0.62264859      -2.45592969       0.64226336
C        1.78714474       0.01002794       0.00389507
H        2.44202412       0.67113390       0.66197326
H        2.45385902      -0.65136977      -0.64189061
C        0.91606151      -0.90478549       0.90901405
