178
Properties=species:S:1:pos:R:3 pbc="F F F"
C        5.81169071       2.32024707      -5.12192086
C        4.95646650       3.53425534      -5.58658029
C        4.31220033       4.32948014      -4.31623988
C        3.42448455       3.43508401      -3.41898281
C        3.94999339       2.73502409      -2.31394337
C        3.14551206       1.92100438      -1.50891291
C        1.79104160       1.79104160      -1.79104160
C        1.23896515       2.46094360      -2.87477563
C        2.04852463       3.26905966      -3.68082763
N        5.41946668       4.95077790      -3.51969297
C        3.51761671       5.58740200      -4.77277020
C        3.90050424       3.08710586      -6.62488114
C        3.52361557       3.91079468      -7.70559781
C        2.56460687       3.50150188      -8.63930142
C        1.95794570       2.25813119      -8.50925370
C        2.29739900       1.42494860      -7.45120943
C        3.25574905       1.83832192      -6.51909294
N        5.99779140       4.39852174      -6.23127534
H        5.24020060       1.59567601      -4.53491194
H        6.66118823       2.62665370      -4.49973464
H        6.22700780       1.77434193      -5.98000166
H        5.00174124       2.81203593      -2.05138789
H        3.58826076       1.40123000      -0.66299760
H        0.18043407       2.36680253      -3.10545709
H        1.57365878       3.76350972      -4.52523395
H        6.01465850       5.42949273      -4.20493601
H        6.03478799       4.21481676      -3.18299807
H        4.15019765       6.31212043      -5.29900938
H        3.07980905       6.11213857      -3.91286449
H        2.69233323       5.34830947      -5.44919670
H        3.96013856       4.89684540      -7.84182811
H        2.29934837       4.16334207      -9.45996264
H        1.82347752       0.45339543      -7.33485223
H        3.47413080       1.16024265      -5.69695705
H        5.57937801       5.26964564      -6.54511338
H        6.33990713       3.92166140      -7.06615493
C        0.97064860       1.83591511      -9.46872126
C        0.14378727       1.48230914     -10.27227535
Br      -1.19317755       0.91055820     -11.57155435
C       -2.59456287      -6.29175990      -4.36753588
C       -4.07703639      -5.90636605      -4.09389969
C       -4.32841854      -4.31034248      -4.31915933
C       -3.43065762      -3.41673810      -3.43115564
C       -2.17001529      -2.96119395      -3.86775161
C       -1.35737672      -2.15912969      -3.05892293
C       -1.79104160      -1.79104160      -1.79104160
C       -3.02463324      -2.22545600      -1.32459512
C       -3.83133821      -3.03254599      -2.13452772
N       -4.13261333      -3.98762939      -5.76969483
C       -5.82514788      -3.93368634      -4.11895468
C       -4.51595946      -6.40108415      -2.69544764
C       -5.82270962      -6.86958194      -2.44771651
C       -6.21430108      -7.31216898      -1.17894011
C       -5.30595566      -7.29182221      -0.12755272
C       -4.01334218      -6.82724377      -0.33297109
C       -3.62607842      -6.38443066      -1.60265483
N       -4.78411486      -6.67260259      -5.17087103
H       -1.88898503      -5.75350908      -3.72829444
H       -2.29813688      -6.08626399      -5.40317569
H       -2.42349600      -7.36306655      -4.19478884
H       -1.79291028      -3.21820993      -4.85404483
H       -0.39351457      -1.82469803      -3.43427576
H       -3.37451828      -1.94399738      -0.33417803
H       -4.78318836      -3.35815786      -1.72105623
H       -4.67397011      -4.69244838      -6.28266875
H       -3.17871493      -4.22154734      -6.03234057
H       -6.48370446      -4.45048005      -4.82714295
H       -5.98459581      -2.85660155      -4.26361475
H       -6.19567887      -4.17528075      -3.11887978
H       -6.57215189      -6.89202589      -3.23463429
H       -7.23040362      -7.66689093      -1.02535852
H       -3.29656508      -6.79919576       0.48403567
H       -2.60994606      -6.01119916      -1.71018528
H       -5.77982620      -6.47222473      -5.14208611
H       -4.68127687      -7.66927999      -4.97716660
C       -5.70755303      -7.74624831       1.17851637
C       -6.04389083      -8.12683017       2.27234924
Br      -6.58772061      -8.74219884       4.04098446
C       -2.39288025       4.84437189       6.01660650
C       -3.49584555       5.46800284       5.11345374
C       -4.32907396       4.31760973       4.31123666
C       -3.43543039       3.41987142       3.42324955
C       -2.86448738       2.22581884       3.90865463
C       -2.05056645       1.42002204       3.10484085
C       -1.79104160       1.79104160       1.79104160
C       -2.33145571       2.96346718       1.27976147
C       -3.13984229       3.76942397       2.08914566
N       -5.09540186       3.49338445       5.30115125
C       -5.48118663       4.93217851       3.46442377
C       -2.88870796       6.54274058       4.18104271
C       -3.59633839       7.71150166       3.83216801
C       -3.04245770       8.67809474       2.98485773
C       -1.76737405       8.49378254       2.46417400
C       -1.04559457       7.34958431       2.77837815
C       -1.60335946       6.38494715       3.62485730
N       -4.39078607       6.10081398       6.13598843
H       -1.67039489       4.24510474       5.45528893
H       -2.81241235       4.18727983       6.78788439
H       -1.81975460       5.62220804       6.53938876
H       -3.04549432       1.89257408       4.92709665
H       -1.63279965       0.50424759       3.51544112
H       -2.13525481       3.26415512       0.25328376
H       -3.52995926       4.68405211       1.64839109
H       -5.56810169       4.16868323       5.91230232
H       -4.43867899       3.05342131       5.94050253
H       -6.21328333       5.46649667       4.08154746
H       -6.03159338       4.15249892       2.92071981
H       -5.12646657       5.64680672       2.71656611
H       -4.60147110       7.89389334       4.20344763
H       -3.61763619       9.56698507       2.73803181
H       -0.05037068       7.19090626       2.37044823
H       -1.00836781       5.49677924       3.82618345
H       -5.19944734       6.51426950       5.68042019
H       -3.88211175       6.86662396       6.57898775
C       -1.19644294       9.48705190       1.59179012
C       -0.71828814      10.31891500       0.86116862
Br       0.05484773      11.66396727      -0.32018455
C        4.75478309      -6.07549833       2.42357722
C        5.42747882      -5.16161720       3.48820612
C        4.31805035      -4.31096179       4.32890820
C        3.42017700      -3.42286922       3.43550514
C        2.20081946      -3.89210670       2.90603470
C        1.39477200      -3.08848924       2.09216810
C        1.79104160      -1.79104160       1.79104160
C        2.98865360      -1.29614808       2.28988268
C        3.79458760      -2.10547112       3.09835319
N        3.48935329      -5.26110594       5.13947833
C        4.98154433      -3.45196566       5.44427892
C        6.50910527      -4.27131390       2.83207207
C        7.70327333      -3.93457057       3.50216418
C        8.67607875      -3.12532676       2.90400467
C        8.47276378      -2.63136657       1.62120023
C        7.30363404      -2.93441647       0.93550653
C        6.33290035      -3.74278394       1.53747961
N        6.05734670      -6.17754255       4.39269922
H        4.15152282      -5.51715352       1.70211222
H        4.08979180      -6.81973464       2.87805013
H        5.50515575      -6.63128076       1.84491488
H        1.84752611      -4.89722644       3.12041250
H        0.45915958      -3.48617751       1.70715127
H        3.30922661      -0.28255564       2.06091143
H        4.72909853      -1.67829050       3.45501342
H        4.16116312      -5.87722163       5.61070248
H        3.01774764      -5.90507295       4.50978224
H        5.51877770      -4.06423061       6.17831915
H        4.22927188      -2.87578062       5.99975961
H        5.70508254      -2.73099335       5.05376351
H        7.90157447      -4.28573259       4.51150501
H        9.58476407      -2.88681652       3.45107248
H        7.13017015      -2.54697636      -0.06542133
H        5.42554951      -3.93632171       0.96945927
H        6.50177868      -5.71289260       5.17946576
H        6.79924629      -6.65172375       3.87675342
C        9.47241405      -1.79814366       1.00472726
C       10.30962114      -1.10031947       0.48843115
Br      11.66331421       0.02800322      -0.34637600
C       -0.00445707       0.01189536      -1.78238275
H       -0.66409135       0.67374010      -2.43557963
H        0.65740317      -0.63156657      -2.45157240
C       -0.90989263      -0.90692880      -0.91072765
C        0.90977584       0.90977584      -0.90977584
C       -0.00465871       1.77757030       0.00794375
H       -0.66225468       2.44313916      -0.64384735
H        0.64322798       2.43503045       0.67728295
C       -1.78241447       0.00034974      -0.00472694
H       -2.45427497      -0.65498947       0.64260836
H       -2.43311707       0.67328779      -0.65473579
C       -0.91132561       0.90220522       0.91563759
C       -0.01476271      -0.02253852       1.78660255
H       -0.67934791      -0.69751639       2.42135241
H        0.63392994       0.61504881       2.47327442
C        0.01484550      -1.77751727      -0.01636693
H        0.67870853      -2.42144646      -0.68295456
H       -0.62264859      -2.45592969       0.64226336
C        1.78714474       0.01002794       0.00389507
H        2.44202412       0.67113390       0.66197326
H        2.45385902      -0.65136977      -0.64189061
C        0.91606151      -0.90478549       0.90901405
