173
Properties=species:S:1:pos:R:3 pbc="F F F"
C        0.00000000       0.00000000       0.00000000
C        2.52848791       3.93264751      -4.55078195
C        3.39896310       3.40011072      -3.40001581
C        2.52701299       2.50615149      -2.50077329
C        2.35184443       1.13486148      -2.77888696
C        1.54332782       0.32725276      -1.97230707
C        0.88154287       0.88154287      -0.88154287
C        1.01308900       2.23615542      -0.59534712
C        1.82305097       3.04107011      -1.40288858
C        4.54395986       2.70002141      -3.93291563
C        5.48767994       2.12300170      -4.37214492
C        6.57241479       1.45975678      -4.87700896
C        7.51613486       0.88273706      -5.31623825
C        8.66112774       0.18263977      -5.84914267
C        9.98579464       0.65342085      -5.22213419
C       11.07798763      -0.22705539      -5.08310469
C       12.28990506       0.19799246      -4.52965680
C       12.43482824       1.51801118      -4.11616275
C       11.38473174       2.41853111      -4.26241096
C       10.17456995       1.99116185      -4.81844716
N        8.44357686      -1.25085477      -5.60266759
C        8.73895040       0.38873421      -7.37131987
N        3.91125272       4.56016776      -2.65514774
H        3.09915632       4.58632468      -5.22298606
H        1.67061747       4.50676489      -4.17881043
H        2.12999760       3.11425278      -5.16408752
H        2.84363610       0.67412494      -3.63350793
H        1.43671582      -0.72828858      -2.20783407
H        0.49041930       2.67978018       0.24784568
H        1.89807992       4.10191527      -1.16786722
H       10.99206501      -1.26175700      -5.41222594
H       13.10881389      -0.50917291      -4.42967513
H       11.49482005       3.45395929      -3.95084567
H        9.37871590       2.72453578      -4.93238875
H        7.54947732      -1.52379230      -6.00614437
H        8.35415796      -1.38747598      -4.59630671
H        7.81863351       0.06282590      -7.87259635
H        9.57338015      -0.16877651      -7.81452880
H        8.88387423       1.44650045      -7.62518570
H        4.49833429       5.11685673      -3.27333233
H        4.52409449       4.21523510      -1.91704595
C       13.67985359       1.95705939      -3.54105534
C       14.72256233       2.32476227      -3.05940287
Br      16.40853416       2.91930672      -2.28061158
C       -4.71411220      -2.64167724      -3.65612793
C       -3.40016010      -3.39897025      -3.39995928
C       -2.49827822      -2.52587261      -2.50978694
C       -2.59810332      -2.56378411      -1.10370543
C       -1.79161772      -1.75543017      -0.29583976
C       -0.88154287      -0.88154287      -0.88154287
C       -0.77682867      -0.80171640      -2.26604647
C       -1.58369578      -1.61196117      -3.07135272
C       -3.68163705      -4.68613957      -2.80912029
C       -3.91364079      -5.74704066      -2.32214510
C       -4.18031406      -6.96646723      -1.76239923
C       -4.41231780      -8.02736832      -1.27542404
C       -4.69379862      -9.31453547      -0.68457609
C       -3.98045786     -10.46769115      -1.41320068
C       -3.58299994     -11.62984574      -0.72119125
C       -2.94939917     -12.68842582      -1.37972934
C       -2.71309499     -12.60792722      -2.74797997
C       -3.11526255     -11.48564809      -3.46476317
C       -3.75085673     -10.42944863      -2.80387359
N       -4.27489301      -9.24394023       0.72344357
C       -6.20822904      -9.58186085      -0.70891459
N       -2.77005089      -3.65196764      -4.70454969
H       -5.39629598      -3.21647463      -4.29569645
H       -4.53707706      -1.67500796      -4.14410777
H       -5.24948462      -2.43927001      -2.71958327
H       -3.31071121      -3.22552597      -0.61503179
H       -1.88601584      -1.81537833       0.78513287
H       -0.07684571      -0.11340364      -2.73210445
H       -1.49447250      -1.52041127      -4.15297865
H       -3.76970175     -11.72083430       0.34800210
H       -2.64889047     -13.56623584      -0.81418980
H       -2.94290175     -11.42079717      -4.53592608
H       -4.06593759      -9.57300796      -3.39669488
H       -4.74337109      -8.45722922       1.16877093
H       -3.27831895      -9.02996357       0.74529383
H       -6.76846979      -8.78989605      -0.19568993
H       -6.46049400     -10.53358057      -0.22505787
H       -6.58997353      -9.62886797      -1.73671889
H       -3.38335285      -4.24724918      -5.25792132
H       -1.92002973      -4.19165110      -4.54469470
C       -2.05610247     -13.69419924      -3.42766661
C       -1.50587124     -14.60395206      -3.99690416
Br      -0.61619387     -16.07494543      -4.91731315
C       -4.26878130       2.47403027       4.26910581
C       -3.39980355       3.39901286       3.40027321
C       -2.50484738       2.52722427       2.50186611
C       -2.95709466       2.05662114       1.25187707
C       -2.15031333       1.24797048       0.44460384
C       -0.88154287       0.88154287       0.88154287
C       -0.41590129       1.30799166       2.12069859
C       -1.22430914       2.11738770       2.92531282
C       -4.24114047       4.29428038       2.64147606
C       -4.93458674       5.03216997       2.01606985
C       -5.73165457       5.88031691       1.29720904
C       -6.42510084       6.61820649       0.67180283
C       -7.26644274       7.51346802      -0.08700058
C       -6.83284691       8.98465466       0.04384811
C       -7.04110025       9.90046060      -1.00752392
C       -6.66487889      11.24219311      -0.88951767
C       -6.08374728      11.69512509       0.29012981
C       -5.88723623      10.82276055       1.35567703
C       -6.26666108       9.48188859       1.23562928
N       -7.21186032       7.07251710      -1.48898774
C       -8.72460288       7.38844126       0.38596034
N       -2.59135814       4.23022313       4.30498695
H       -4.92486170       3.04430933       4.93929603
H       -3.65709961       1.80827328       4.89081990
H       -4.91732083       1.83787928       3.65313778
H       -3.95033001       2.31285220       0.88808676
H       -2.52451774       0.90972279      -0.51797923
H        0.56935334       1.01681729       2.47488985
H       -0.84384119       2.42592638       3.89809484
H       -7.50666109       9.57147776      -1.93560490
H       -6.83253798      11.91937005      -1.72259191
H       -5.44311417      11.17255347       2.28395736
H       -6.11274270       8.82978638       2.09311135
H       -7.47834908       6.09102413      -1.53754383
H       -6.24076308       7.11829317      -1.79606756
H       -9.08932752       6.35623368       0.30849456
H       -9.39835540       8.02339183      -0.20261479
H       -8.83176040       7.68737493       1.43642506
H       -3.21337252       4.80672121       4.86842963
H       -2.04474409       4.87573966       3.73589179
C       -5.69053138      13.07498705       0.41244989
C       -5.36121305      14.23062145       0.51489297
Br      -4.82873317      16.09918453       0.68053475
C        4.38423013      -4.14570629       2.48198095
C        3.40032185      -3.39971922       3.39904856
C        2.50044390      -2.50657285       2.52692102
C        1.31717158      -3.00473771       1.94368357
C        0.51002044      -2.19785977       1.13500744
C        0.88154287      -0.88154287       0.88154287
C        2.05594367      -0.36771042       1.42093745
C        2.86051127      -1.17642937       2.23006902
C        2.64513398      -4.34739569       4.18436724
C        2.02270304      -5.12848800       4.83163551
C        1.30726244      -6.02629846       5.57561962
C        0.68483150      -6.80739077       6.22288790
C       -0.07036188      -7.75507220       7.00819986
C       -0.06419047      -7.41586793       8.50967222
C       -1.15538456      -7.75343316       9.33598833
C       -1.14976113      -7.46329788      10.70401757
C       -0.04422286      -6.84011858      11.27310646
C        1.05910230      -6.51631298      10.49025854
C        1.05161084      -6.80982754       9.12274058
N       -1.44161287      -7.76042941       6.47657313
C        0.50850603      -9.16788009       6.82261836
N        4.19229056      -2.59380216       4.34047551
H        5.05986182      -4.79499878       3.05360646
H        5.00396432      -3.45119985       1.90102862
H        3.85625567      -4.78727596       1.76480627
H        1.00665177      -4.03448907       2.11012813
H       -0.40095647      -2.60896538       0.70825239
H        2.35969550       0.65587556       1.21853387
H        3.78311833      -0.75639673       2.62834736
H       -2.02634238      -8.25391368       8.91496265
H       -2.01109800      -7.73008409      11.31033003
H        1.93039363      -6.03859055      10.93064082
H        1.93658138      -6.55687489       8.54218416
H       -1.40872442      -7.96156114       5.47899267
H       -1.81685419      -6.81645851       6.56338437
H        0.52260100      -9.46519101       5.76626375
H       -0.07200370      -9.91994525       7.37119088
H        1.54250199      -9.22767723       7.18538117
H        4.75891166      -3.21645291       4.91315879
H        3.54682453      -2.13036667       4.97918434
C       -0.03791570      -6.53540140      12.68048263
C       -0.03263346      -6.28020076      13.85916016
Br      -0.02409252      -5.86756292      15.76498205
