170
Properties=species:S:1:pos:R:3 pbc="F F F"
C        1.77201501       1.77201501      -1.77201501
C        3.10103761       1.65823417      -1.83683481
C        3.96278584       2.49736324      -2.68008174
C        5.25283953       2.80464680      -2.23181694
C        6.12453456       3.56186216      -3.02220594
C        5.73606070       4.01266088      -4.28747737
C        4.44203510       3.71352689      -4.73012520
C        3.56694528       2.95958434      -3.93949531
C        6.60871481       4.80616125      -5.16898247
C        7.93549806       4.95139099      -5.02977374
C        8.71979528       5.74870626      -5.94380461
C        9.91590074       6.25570195      -5.60745028
C       10.77466634       7.07189553      -6.48048254
C       10.31750495       7.68593719      -7.65435395
C       11.18329326       8.43621868      -8.45592101
C       12.52164572       8.59310164      -8.08755443
C       12.97965167       8.01772004      -6.90116407
C       12.11162711       7.26585220      -6.10441039
C       13.43065750       9.35684780      -8.93528507
C       13.55913314      10.68134974      -8.80520843
Br      14.69041047      11.71417942      -9.85014579
H        1.20717464       2.50489108      -2.33056321
H        3.61451447       0.91738104      -1.22791470
H        5.59484898       2.46156086      -1.25757264
H        7.10844957       3.78973276      -2.61973948
H        4.09970843       4.05299630      -5.70579240
H        2.58234268       2.72643661      -4.33606346
H        6.10349104       5.31718376      -5.98624373
H        8.47798726       4.46626365      -4.22301657
H        8.29228690       5.91378924      -6.92934816
H       10.30591550       6.07346436      -4.60781996
H        9.28156018       7.59518225      -7.96977045
H       10.80492276       8.88851003      -9.36855573
H       14.01431326       8.14245934      -6.59076953
H       12.49762375       6.82263384      -5.18880029
H       13.99196670       8.79316108      -9.67452288
H       13.00556399      11.25776660      -8.07178656
C       -1.77201501      -1.77201501      -1.77201501
C       -1.29349371      -2.58743440      -2.71517848
C       -2.12762743      -3.44214852      -3.57045487
C       -1.70538414      -3.70493114      -4.87898800
C       -2.44408057      -4.55054905      -5.71397304
C       -3.61070394      -5.17005175      -5.25544327
C       -4.03743406      -4.89813958      -3.95011354
C       -3.30222164      -4.04942429      -3.11437900
C       -4.42708492      -6.07492479      -6.08184882
C       -4.03741026      -6.64849133      -7.23076119
C       -4.90291040      -7.52880193      -7.98059382
C       -4.72639975      -7.76243934      -9.29021388
C       -5.56011292      -8.64587485     -10.12105664
C       -6.82470323      -9.10477269      -9.72832017
C       -7.56606949      -9.95800718     -10.55135628
C       -7.05600741     -10.35721211     -11.78908227
C       -5.81413615      -9.87671174     -12.20768790
C       -5.07490174      -9.02647674     -11.38051122
C       -7.81922805     -11.26548389     -12.63807842
C       -8.72954964     -10.81073837     -13.50540330
Br      -9.73744851     -11.90690980     -14.61037737
H       -2.82544716      -1.65856034      -1.55862143
H       -0.22274749      -2.63637782      -2.90068490
H       -0.79645112      -3.25015245      -5.26737891
H       -2.08380200      -4.70627160      -6.72784820
H       -4.94445626      -5.35500292      -3.55903794
H       -3.65541060      -3.89046191      -2.09897023
H       -5.43195562      -6.26510512      -5.70985778
H       -3.04634752      -6.47855602      -7.64236394
H       -5.70799417      -8.00250000      -7.42493013
H       -3.91236633      -7.26280134      -9.81203214
H       -7.25981541      -8.80931897      -8.77737850
H       -8.53720961     -10.31024493     -10.21453398
H       -5.40843440     -10.16444161     -13.17466612
H       -4.10669093      -8.67321401     -11.72915294
H       -7.60932894     -12.32497320     -12.52534852
H       -8.94998723      -9.75590293     -13.62922699
C       -1.77201501       1.77201501       1.77201501
C       -3.10678512       1.75771815       1.73160332
C       -3.96872611       2.59831165       2.57319306
C       -5.19436624       3.03672373       2.05821329
C       -6.06799749       3.80046003       2.84014514
C       -5.74771502       4.12705137       4.16143257
C       -4.51709924       3.69683909       4.67174885
C       -3.63983725       2.93611006       3.89007763
C       -6.62677622       4.92036030       5.03672201
C       -7.92471752       5.17817192       4.81377335
C       -8.71817981       5.96604222       5.72808412
C       -9.84469424       6.58763452       5.34672421
C      -10.70764631       7.40303845       6.21635965
C      -10.30015366       7.89320095       7.46444148
C      -11.16928318       8.64877507       8.25737470
C      -12.46003651       8.93562834       7.80663693
C      -12.86460119       8.48487724       6.54905736
C      -11.99373760       7.72720385       5.76094826
C      -13.37476814       9.70462315       8.64339908
C      -13.39670930      11.04103369       8.60794831
Br     -14.52837266      12.08065722       9.64570580
H       -1.20093895       2.41639982       2.42529017
H       -3.62344089       1.10503914       1.03133018
H       -5.48333576       2.79259406       1.03805266
H       -6.99853506       4.13275405       2.38663271
H       -4.22818638       3.93724522       5.69306553
H       -2.70853772       2.59894129       4.33736374
H       -6.15115709       5.33010256       5.92565887
H       -8.43633887       4.79632227       3.93460634
H       -8.35793335       6.02570018       6.75179077
H      -10.16780114       6.50901606       4.31038262
H       -9.30119557       7.69948197       7.84583534
H      -10.83147092       9.00311028       9.22740732
H      -13.86021968       8.71192555       6.17539690
H      -12.33824569       7.38269925       4.78811295
H      -14.03120087       9.13444974       9.29400005
H      -12.74750627      11.62404800       7.96356288
C        1.77201501      -1.77201501       1.77201501
C        1.29808189      -2.54755425       2.75047045
C        2.13224727      -3.40167425       3.60630930
C        1.73993827      -3.61659151       4.93277350
C        2.47841800      -4.45949355       5.77069111
C        3.61430544      -5.12386659       5.29802693
C        4.01143759      -4.89986537       3.97438422
C        3.27650284      -4.05398680       3.13553530
C        4.42854798      -6.02839734       6.12691321
C        4.05579376      -6.55914090       7.30172813
C        4.91763618      -7.44260370       8.05206627
C        4.77169840      -7.63527857       9.37207601
C        5.60397091      -8.51875432      10.20431919
C        6.84399268      -9.02360149       9.79020191
C        7.58459586      -9.87451614      10.61632095
C        7.09881328     -10.22521782      11.87827069
C        5.88281136      -9.69871607      12.31700836
C        5.14413992      -8.85097180      11.48677798
C        7.86047871     -11.13103193      12.73127973
C        8.80692687     -10.67851310      13.56025133
Br       9.81514122     -11.77196151      14.66763296
H        2.82173867      -1.69410718       1.52678309
H        0.23203774      -2.56127633       2.96649614
H        0.85506517      -3.12598042       5.33293689
H        2.14266828      -4.57723475       6.79801878
H        4.89426884      -5.39257920       3.57164909
H        3.60521389      -3.93285086       2.10677800
H        5.41698307      -6.25686300       5.73307245
H        3.08171618      -6.35020956       7.73534174
H        5.69351872      -7.95377435       7.48813123
H        3.98663083      -7.09886198       9.90170700
H        7.26010990      -8.76661975       8.81978322
H        8.53588290     -10.26300407      10.26310156
H        5.49674415      -9.94836833      13.30242965
H        4.19614035      -8.46121879      11.85169875
H        7.61859327     -12.18688653      12.65417086
H        9.05952734      -9.62730172      13.64828808
C       -0.00445707       0.01189536      -1.78238275
H       -0.66409135       0.67374010      -2.43557963
H        0.65740317      -0.63156657      -2.45157240
C       -0.90989263      -0.90692880      -0.91072765
C        0.90977584       0.90977584      -0.90977584
C       -0.00465871       1.77757030       0.00794375
H       -0.66225468       2.44313916      -0.64384735
H        0.64322798       2.43503045       0.67728295
C       -1.78241447       0.00034974      -0.00472694
H       -2.45427497      -0.65498947       0.64260836
H       -2.43311707       0.67328779      -0.65473579
C       -0.91132561       0.90220522       0.91563759
C       -0.01476271      -0.02253852       1.78660255
H       -0.67934791      -0.69751639       2.42135241
H        0.63392994       0.61504881       2.47327442
C        0.01484550      -1.77751727      -0.01636693
H        0.67870853      -2.42144646      -0.68295456
H       -0.62264859      -2.45592969       0.64226336
C        1.78714474       0.01002794       0.00389507
H        2.44202412       0.67113390       0.66197326
H        2.45385902      -0.65136977      -0.64189061
C        0.91606151      -0.90478549       0.90901405
