149
Properties=species:S:1:pos:R:3 pbc="F F F"
C        0.00000000       0.00000000       0.00000000
C        0.86211098       0.86211098      -0.86211098
C        2.19113358       0.74833015      -0.92693078
C        3.05288181       1.58745922      -1.77017772
C        4.34293551       1.89474277      -1.32191292
C        5.21463054       2.65195813      -2.11230191
C        4.82615668       3.10275685      -3.37757335
C        3.53213107       2.80362286      -3.82022118
C        2.65704126       2.04968032      -3.02959128
C        5.69881078       3.89625722      -4.25907845
C        7.02559403       4.04148697      -4.11986971
C        7.80989126       4.83880224      -5.03390058
C        9.00599672       5.34579793      -4.69754625
C        9.86476232       6.16199151      -5.57057851
C        9.40760092       6.77603317      -6.74444992
C       10.27338924       7.52631466      -7.54601698
C       11.61174170       7.68319761      -7.17765040
C       12.06974765       7.10781602      -5.99126005
C       11.20172309       6.35594817      -5.19450637
C       12.52075348       8.44694377      -8.02538104
C       12.64922912       9.77144571      -7.89530440
Br      13.78050645      10.80427539      -8.94024176
H        0.29727061       1.59498706      -1.42065919
H        2.70461044       0.00747702      -0.31801068
H        4.68494496       1.55165684      -0.34766861
H        6.19854555       2.87982874      -1.70983545
H        3.18980441       3.14309227      -4.79588837
H        1.67243865       1.81653259      -3.42615943
H        5.19358701       4.40727973      -5.07633970
H        7.56808324       3.55635963      -3.31311254
H        7.38238288       5.00388522      -6.01944413
H        9.39601148       5.16356033      -3.69791593
H        8.37165616       6.68527822      -7.05986642
H        9.89501873       7.97860601      -8.45865171
H       13.10440924       7.23255532      -5.68086551
H       11.58771973       5.91272982      -4.27889627
H       13.08206267       7.88325705      -8.76461886
H       12.09565996      10.34786258      -7.16188254
C       -0.86211098      -0.86211098      -0.86211098
C       -0.63676950      -1.06729502      -2.16233000
C       -1.47427927      -1.91273076      -3.02350871
C       -1.61926886      -1.56786905      -4.37245329
C       -2.36950198      -2.36922646      -5.24016215
C       -2.97554879      -3.54468938      -4.78624870
C       -2.83843923      -3.88286385      -3.43467203
C       -2.09172998      -3.08064077      -2.56394211
C       -3.77062322      -4.43320018      -5.65032305
C       -3.78211809      -4.41276635      -6.99206627
C       -4.59208162      -5.32447947      -7.76603299
C       -4.95442783      -5.06341636      -9.03149671
C       -5.77240327      -5.94013211      -9.88479696
C       -6.53739785      -7.00363878      -9.38704738
C       -7.28238712      -7.81611440     -10.24721936
C       -7.28185039      -7.56865395     -11.62208537
C       -6.55386513      -6.48936254     -12.12559605
C       -5.80797731      -5.68157951     -11.26262082
C       -8.04085799      -8.42993047     -12.52228983
C       -9.32929597      -8.19510538     -12.79157788
Br     -10.35450571      -9.24962100     -13.92089690
H       -1.69398265      -1.29453146      -0.32440275
H        0.20336713      -0.58061070      -2.65285457
H       -1.15276932      -0.66663579      -4.76486529
H       -2.46768978      -2.04674410      -6.27377585
H       -3.30152275      -4.78579984      -3.04146246
H       -1.98779318      -3.39768187      -1.52965563
H       -4.40273027      -5.14775669      -5.12671949
H       -3.17337430      -3.70996934      -7.55421177
H       -4.89092359      -6.24443117      -7.27035746
H       -4.64055342      -4.12734957      -9.48958475
H       -6.57119975      -7.22245361      -8.32314744
H       -7.85431469      -8.64293405      -9.83502771
H       -6.55435457      -6.27235717     -13.19111832
H       -5.24406684      -4.85174917     -11.68352980
H       -7.50467195      -9.26827575     -12.95699089
H       -9.87797852      -7.36214653     -12.36528003
C       -0.86211098       0.86211098       0.86211098
C       -1.47370118       0.42628849       1.96640485
C       -2.32378112       1.26139299       2.82534463
C       -3.40533393       0.66763105       3.48662622
C       -4.21403462       1.41406103       4.35079494
C       -3.94956067       2.76586270       4.59106351
C       -2.87398115       3.36094768       3.92104628
C       -2.06605979       2.61718961       3.05306346
C       -4.75787634       3.60247083       5.49379928
C       -5.63469985       3.14926892       6.40298194
C       -6.38767636       4.04144341       7.25347430
C       -7.53773656       3.67295754       7.83864680
C       -8.35886208       4.51972361       8.71874665
C       -8.21319124       5.91096093       8.80393185
C       -9.00973008       6.66420398       9.67178682
C       -9.97507683       6.03554467      10.46196821
C      -10.15524749       4.65527389      10.35830233
C       -9.35472577       3.90562538       9.49182648
C      -10.79077411       6.81815812      11.38414606
C      -11.93127969       7.39430131      10.99039822
Br     -13.01362924       8.40509564      12.10629873
H       -0.94693038       1.87400804       0.49197844
H       -1.37091774      -0.61267349       2.27185389
H       -3.63536106      -0.38475732       3.33366667
H       -5.05323084       0.91060617       4.82437272
H       -2.64051707       4.41258191       4.07568607
H       -1.22427370       3.11341871       2.57743826
H       -4.61998632       4.67606678       5.38115335
H       -5.80956695       2.08597584       6.54201261
H       -5.96934666       5.03339207       7.40297350
H       -7.92690215       2.67273465       7.65785094
H       -7.48013818       6.43774285       8.19891978
H       -8.86452795       7.73954943       9.72819907
H      -10.91241036       4.15123379      10.95418591
H       -9.51206456       2.83045211       9.43682915
H      -10.42100339       6.90766505      12.40127014
H      -12.31328289       7.31374527       9.97837692
C        0.86211098      -0.86211098       0.86211098
C        1.02124359      -2.17420193       0.67094899
C        1.86596370      -3.03560329       1.50895175
C        1.48552534      -4.36832351       1.70574235
C        2.28331996      -5.23750098       2.45806964
C        3.48997685      -4.80213341       3.01437663
C        3.86405600      -3.46634141       2.82557769
C        3.06559563      -2.59401350       2.07670372
C        4.37633643      -5.66902649       3.80878353
C        4.31612338      -7.00855549       3.86227185
C        5.22881970      -7.78569443       4.66807995
C        4.94130616      -9.03109154       5.07694320
C        5.81691051      -9.88617127       5.89425056
C        6.91792995      -9.39879760       6.61135647
C        7.72689627     -10.26094508       7.35787953
C        7.43850399     -11.62692258       7.40716315
C        6.32268372     -12.11845754       6.72768245
C        5.51846181     -11.25368105       5.98003477
C        8.29546057     -12.53015155       8.16746617
C        8.09254193     -12.75338892       9.47004838
Br       9.14391492     -13.88351582      10.49759287
H        1.33588633      -0.31334532       1.66368521
H        0.49441158      -2.67440084      -0.13871429
H        0.55899020      -4.74653036       1.27874985
H        1.93323297      -6.25727269       2.59770408
H        4.79221078      -3.08749249       3.24908178
H        3.41008918      -1.57357382       1.93146768
H        5.12540230      -5.14903443       4.40276972
H        3.57837349      -7.56671749       3.29246443
H        6.17197402      -7.30991422       4.92382398
H        3.98271273      -9.46927169       4.80550332
H        7.16942340      -8.34161961       6.60575779
H        8.58293093      -9.85752620       7.89181933
H        6.07400739     -13.17628597       6.76753670
H        4.65940570     -11.66547641       5.45446369
H        9.10348114     -13.00635953       7.62009792
H        7.29003686     -12.28536858      10.02999964
