178
Properties=species:S:1:pos:R:3 pbc="F F F"
C        1.77201501       1.77201501      -1.77201501
C        3.10103761       1.65823417      -1.83683481
C        3.96278584       2.49736324      -2.68008174
C        5.25283953       2.80464680      -2.23181694
C        6.12453456       3.56186216      -3.02220594
C        5.73606070       4.01266088      -4.28747737
C        4.44203510       3.71352689      -4.73012520
C        3.56694528       2.95958434      -3.93949531
C        6.60871481       4.80616125      -5.16898247
C        7.93549806       4.95139099      -5.02977374
C        8.71979528       5.74870626      -5.94380461
C        9.91590074       6.25570195      -5.60745028
C       10.77466634       7.07189553      -6.48048254
C       10.31750495       7.68593719      -7.65435395
C       11.18329326       8.43621868      -8.45592101
C       12.52164572       8.59310164      -8.08755443
C       12.97965167       8.01772004      -6.90116407
C       12.11162711       7.26585220      -6.10441039
C       13.43065750       9.35684780      -8.93528507
C       13.55913314      10.68134974      -8.80520843
H        1.20717464       2.50489108      -2.33056321
H        3.61451447       0.91738104      -1.22791470
H        5.59484898       2.46156086      -1.25757264
H        7.10844957       3.78973276      -2.61973948
H        4.09970843       4.05299630      -5.70579240
H        2.58234268       2.72643661      -4.33606346
H        6.10349104       5.31718376      -5.98624373
H        8.47798726       4.46626365      -4.22301657
H        8.29228690       5.91378924      -6.92934816
H       10.30591550       6.07346436      -4.60781996
H        9.28156018       7.59518225      -7.96977045
H       10.80492276       8.88851003      -9.36855573
H       14.01431326       8.14245934      -6.59076953
H       12.49762375       6.82263384      -5.18880029
H       13.99196670       8.79316108      -9.67452288
H       13.00556399      11.25776660      -8.07178656
C       14.43765412      11.48341879      -9.61668000
C       15.17341544      12.15515163     -10.29628744
Br      16.36307927      13.24128681     -11.39515519
C       -1.77201501      -1.77201501      -1.77201501
C       -1.29550505      -2.56779241      -2.73280912
C       -2.12965044      -3.42221417      -3.58836621
C       -1.72200228      -3.66125245      -4.90604855
C       -2.46057181      -4.50553640      -5.74249445
C       -3.61217952      -5.14731626      -5.27670317
C       -4.02448254      -4.89916852      -3.96203613
C       -3.28942826      -4.05184619      -3.12475049
C       -4.42749177      -6.05203582      -6.10433094
C       -4.04595768      -6.60442777      -7.26627733
C       -4.90965572      -7.48631376      -8.01633668
C       -4.74810652      -7.69959671      -9.33134975
C       -5.58110156      -8.58306200     -10.16288085
C       -6.83375915      -9.06472480      -9.75931214
C       -7.57472880      -9.91682385     -10.58388031
C       -7.07643759     -10.29200999     -11.83385420
C       -5.84714735      -9.78871005     -12.26267838
C       -5.10821095      -8.93969591     -11.43398284
C       -7.83886566     -11.19908406     -12.68484065
C       -8.76721770     -10.74518288     -13.53329073
H       -2.82384443      -1.67606542      -1.54271908
H       -0.22685927      -2.59938392      -2.93356701
H       -0.82481852      -3.18868710      -5.30047686
H       -2.11226144      -4.64241234      -6.76324803
H       -4.91969026      -5.37382832      -3.56497855
H       -3.63067335      -3.91165389      -2.10251550
H       -5.42443218      -6.26115610      -5.72133024
H       -3.06309434      -6.41519923      -7.68897391
H       -5.70043782      -7.97864067      -7.45634581
H       -3.94826221      -7.18167276      -9.85726485
H       -7.25966609      -8.78832055      -8.79852623
H       -8.53622035     -10.28702451     -10.23874366
H       -5.45097252     -10.05757993     -13.23898969
H       -4.14982564      -8.56834972     -11.79088253
H       -7.61299092     -12.25700795     -12.58965179
H       -9.00371889      -9.69190640     -13.63949186
C       -9.55003363     -11.59539999     -14.39231929
C      -10.20564197     -12.30745683     -15.11175572
Br     -11.26570521     -13.45879250     -16.27502357
C       -1.77201501       1.77201501       1.77201501
C       -3.10679122       1.75739285       1.73192252
C       -3.96873197       2.59798154       2.57351731
C       -5.19459759       3.03598182       2.05872386
C       -6.06822452       3.79969643       2.84068171
C       -5.74770679       4.12667614       4.16181602
C       -4.51686858       3.69687573       4.67194288
C       -3.63961154       2.93616931       3.89024408
C       -6.62674860       4.91998417       5.03712575
C       -7.92480356       5.17743600       4.81442322
C       -8.71823594       5.96533490       5.72873531
C       -9.84498760       6.58657046       5.34749492
C      -10.70792684       7.40197597       6.21714161
C      -10.30025495       7.89253014       7.46501100
C      -11.16937562       8.64808624       8.25797109
C      -12.46030338       8.93452752       7.80747089
C      -12.86505886       8.48338318       6.55009374
C      -11.99420248       7.72572937       5.76195785
C      -13.37501897       9.70350388       8.64426752
C      -13.39728471      11.03990077       8.60850582
H       -1.20093691       2.41668944       2.42500258
H       -3.62345818       1.10442597       1.03192605
H       -5.48375064       2.79154243       1.03868941
H       -6.99894794       4.13166300       2.38731086
H       -4.22777102       3.93759183       5.69313427
H       -2.70812649       2.59932669       4.33738957
H       -6.15101617       5.33004925       5.92585310
H       -8.43654251       4.79525734       3.93546763
H       -8.35776146       6.02532029       6.75234255
H      -10.16832102       6.50763036       4.31124843
H       -9.30116086       7.69913771       7.84621431
H      -10.83141776       9.00273085       9.22783991
H      -13.86081941       8.71010756       6.17661516
H      -12.33885916       7.38091312       4.78928561
H      -14.03116286       9.13332916       9.29515864
H      -12.74837210      11.62291615       7.96382890
C      -14.27610581      11.84722851       9.41441859
C      -15.01211848      12.52336549      10.08937055
Br     -16.20218872      13.61662179      11.18071076
C        1.77201501      -1.77201501       1.77201501
C        1.30099919      -2.52827072       2.76683667
C        2.13519091      -3.38210274       3.62293716
C        1.75777321      -3.57435184       4.95717823
C        2.49620487      -4.41593034       5.79646744
C        3.61688566      -5.10150097       5.31781233
C        3.99928245      -4.90019662       3.98620812
C        3.26442182      -4.05570148       3.14590163
C        4.43013779      -6.00582372       6.14789702
C        4.06610847      -6.51609476       7.33445956
C        4.92618391      -7.40101748       8.08510476
C        4.79530052      -7.57438991       9.40936255
C        5.62690049      -8.45785711      10.24228681
C        6.85457027      -8.98454634       9.81867948
C        7.59486289      -9.83431917      10.64625089
C        7.12134737     -10.16193251      11.91902191
C        5.91830500      -9.61358880      12.36664199
C        5.17984747      -8.76706546      11.53497677
C        7.88233558     -11.06652239      12.77393240
C        8.84558518     -10.61578998      13.58431614
H        2.81931608      -1.71130282       1.51201003
H        0.23783454      -2.52497467       2.99700099
H        0.88481760      -3.06680339       5.36236149
H        2.17263323      -4.51569940       6.82958919
H        4.87013474      -5.40985403       3.57850835
H        3.58098158      -3.95246342       2.11139775
H        5.41016254      -6.25256706       5.74418892
H        3.10071133      -6.28855121       7.77800494
H        5.68771969      -7.92982198       7.51788263
H        4.02445641      -7.02067203       9.94207138
H        7.26108015      -8.74588303       8.83954970
H        8.53618582     -10.24002947      10.28577324
H        5.54213565      -9.84512668      13.36027981
H        4.24198369      -8.35998041      11.90709378
H        7.62560665     -12.11998735      12.71405665
H        9.11311169      -9.56696650      13.65503897
C        9.62869409     -11.46391151      14.44514732
C       10.28454780     -12.17421329      15.16609342
Br      11.34500778     -13.32271120      16.33180230
C       -0.00445707       0.01189536      -1.78238275
H       -0.66409135       0.67374010      -2.43557963
H        0.65740317      -0.63156657      -2.45157240
C       -0.90989263      -0.90692880      -0.91072765
C        0.90977584       0.90977584      -0.90977584
C       -0.00465871       1.77757030       0.00794375
H       -0.66225468       2.44313916      -0.64384735
H        0.64322798       2.43503045       0.67728295
C       -1.78241447       0.00034974      -0.00472694
H       -2.45427497      -0.65498947       0.64260836
H       -2.43311707       0.67328779      -0.65473579
C       -0.91132561       0.90220522       0.91563759
C       -0.01476271      -0.02253852       1.78660255
H       -0.67934791      -0.69751639       2.42135241
H        0.63392994       0.61504881       2.47327442
C        0.01484550      -1.77751727      -0.01636693
H        0.67870853      -2.42144646      -0.68295456
H       -0.62264859      -2.45592969       0.64226336
C        1.78714474       0.01002794       0.00389507
H        2.44202412       0.67113390       0.66197326
H        2.45385902      -0.65136977      -0.64189061
C        0.91606151      -0.90478549       0.90901405
