41
Properties=species:S:1:pos:R:3 pbc="F F F"
C        0.00000000       0.00000000       0.00000000
C        0.86175107       0.86175107      -0.86175107
N        0.69918685       2.19707779      -1.07663676
H       -0.01501329       2.80857111      -0.69648281
N        1.62716015       2.71706668      -1.90181184
C        2.38645913       1.66136966      -2.20376130
C        1.95997934       0.47376235      -1.58549227
H        2.38978781      -0.51453972      -1.65796558
C        3.52898237       1.73561655      -3.07710431
C        4.48584559       1.79779833      -3.80852909
Br       6.03301249       1.89834100      -4.99118109
C       -0.86175107      -0.86175107      -0.86175107
N       -0.65358133      -2.17881722      -1.14050285
H        0.10098203      -2.77414970      -0.81687297
N       -1.59397671      -2.70377942      -1.94828255
C       -2.40853623      -1.67020847      -2.17284538
C       -2.00523034      -0.49187973      -1.52212389
H       -2.47821577       0.47913481      -1.53413272
C       -3.58358526      -1.75747807      -3.00063991
C       -4.56768883      -1.83056635      -3.69391783
Br      -6.15890107      -1.94874393      -4.81488959
C       -0.86175107       0.86175107       0.86175107
N       -2.07825417       0.52236754       1.37227970
H       -2.58457742      -0.34833428       1.25379750
N       -2.63061200       1.49850849       2.11691818
C       -1.71889735       2.47206505       2.06062768
C       -0.59167111       2.13543724       1.29212561
H        0.28413024       2.73265602       1.08468789
C       -1.87789414       3.74070309       2.72310602
C       -2.01105394       4.80318745       3.27793162
Br      -2.22636208       6.52113480       4.17503771
C        0.86175107      -0.86175107       0.86175107
N        2.14469860      -0.59451967       1.23368314
H        2.70982904       0.21232548       0.99253707
N        2.67895791      -1.55100897       2.01607180
C        1.68673178      -2.43713921       2.12771909
C        0.52574240      -2.06384891       1.42964265
H       -0.41296554      -2.59275929       1.35341991
C        1.79834005      -3.65432013       2.88904306
C        1.89181197      -4.67370916       3.52665189
Br       2.04294815      -6.32197500       4.55761143
