61
Properties=species:S:1:pos:R:3 pbc="F F F"
C        0.00000000       0.00000000       0.00000000
C        0.87438975       0.87438975      -0.87438975
C        0.73311928       2.26795369      -0.96226102
C        1.70260258       2.66504545      -1.86174768
N        2.35430779       1.51011576      -2.21774572
H        3.15249443       1.39973873      -2.83238136
N        1.85640787       0.40379580      -1.64114219
C        2.02587549       3.97197233      -2.33690643
N        2.74489986       4.24490169      -3.47454863
H        3.12974603       3.59375923      -4.14921933
N        2.92460845       5.55631433      -3.70397834
C        2.27633057       6.13366620      -2.69390760
C        1.69301031       5.20715282      -1.81674283
Br       2.15970937       7.99434723      -2.47073718
H        0.01839928       2.89657585      -0.45095009
H        1.11906176       5.40798138      -0.92365438
C       -0.87438975      -0.87438975      -0.87438975
C       -2.21388664      -0.57854212      -1.17090524
C       -2.63609931      -1.61984584      -1.97345056
N       -1.53647704      -2.42967443      -2.11601780
H       -1.44274137      -3.27543852      -2.66643464
N       -0.45547981      -2.00417193      -1.44169412
C       -3.90998918      -1.84866630      -2.57609877
N       -4.35424481      -3.05751075      -3.05259462
H       -3.88214765      -3.95424560      -3.03633133
N       -5.58755179      -3.01391605      -3.58343327
C       -5.94701740      -1.74270353      -3.41418344
C       -4.95478789      -0.97150153      -2.79061654
Br      -7.60920165      -1.05858206      -3.95701008
H       -2.79610330       0.26885072      -0.83867264
H       -4.98887781       0.07915107      -2.54097078
C       -0.87438975       0.87438975       0.87438975
C       -1.21689602       0.55019790       2.19624007
C       -2.02103193       1.59052135       2.61784244
N       -2.07795578       2.45313213       1.55108136
H       -2.54306205       3.35147331       1.49007917
N       -1.40010794       2.02980158       0.47143634
C       -2.65925614       1.79741624       3.87808187
N       -3.71068638       2.65192742       4.10173637
H       -4.20230372       3.23565439       3.43476648
N       -4.13086893       2.67653031       5.37750187
C       -3.33783578       1.78975676       5.97631184
C       -2.40983545       1.20617771       5.10089280
Br      -3.45281135       1.36932079       7.80266165
H       -0.92837895      -0.32413691       2.76168318
H       -1.65622086       0.46612215       5.32835452
C        0.87438975      -0.87438975       0.87438975
C        1.61128157      -1.96492434       0.38712809
C        2.24814590      -2.48463514       1.49661468
N        1.87478885      -1.67024320       2.53713722
H        2.16901287      -1.70946718       3.50613448
N        1.02475899      -0.69158669       2.18500018
C        3.13255319      -3.60048282       1.60171824
N        3.43554682      -4.26311173       2.76569163
H        3.08034805      -4.09281797       3.69955858
N        4.30227823      -5.27696658       2.60565631
C        4.53578118      -5.27369072       1.29443248
C        3.83649894      -4.26412352       0.61628349
Br       5.68361720      -6.49424534       0.44693126
H        1.66421426      -2.33009971      -0.62838875
H        3.84993352      -4.04169416      -0.44093017
