82
Properties=species:S:1:pos:R:3 pbc="F F F"
C        1.78429378       1.78429378      -1.78429378
C        1.64302330       3.17785772      -1.87216505
C        2.61250660       3.57494948      -2.77165170
N        3.26421182       2.42001979      -3.12764974
H        4.06239846       2.30964276      -3.74228539
N        2.76631189       1.31369982      -2.55104622
C        2.93577951       4.88187636      -3.24681045
N        3.65480389       5.15480571      -4.38445265
H        4.03965006       4.50366325      -5.05912335
N        3.83451248       6.46621835      -4.61388236
C        3.18623460       7.04357023      -3.60381162
C        2.60291434       6.11705684      -2.72664685
Br       3.06961340       8.90425126      -3.38064121
H        0.92830330       3.80647988      -1.36085412
H        2.02896579       6.31788540      -1.83355840
C       -1.78429378      -1.78429378      -1.78429378
C       -3.08721292      -1.43453685      -2.17129630
C       -3.52404759      -2.49543033      -2.93962987
N       -2.46583146      -3.36958041      -2.97646948
H       -2.39070833      -4.24885234      -3.47476593
N       -1.40010365      -2.96504396      -2.26591032
C       -4.77481462      -2.68953348      -3.60011822
N       -5.26049189      -3.89788611      -4.03568425
H       -4.84129023      -4.81620487      -3.94494156
N       -6.45926209      -3.81851281      -4.63683829
C       -6.75494922      -2.52239535      -4.55627188
C       -5.75550342      -1.77132778      -3.91978683
Br      -8.34451719      -1.78220385      -5.22778483
H       -3.63759667      -0.53986554      -1.91817508
H       -5.74353737      -0.70794356      -3.72892867
C       -1.78429378       1.78429378       1.78429378
C       -2.13052391       1.45789273       3.10462942
C       -2.93326001       2.49907921       3.52676856
N       -2.98581913       3.36422459       2.46183763
H       -3.44875529       4.26375217       2.40181914
N       -2.30648644       2.94180050       1.38277099
C       -3.57386720       2.70457101       4.78602812
N       -4.62386792       3.56095337       5.00924095
H       -5.11265367       4.14729744       4.34248556
N       -5.04688157       3.58362529       6.28410633
C       -4.25721188       2.69370766       6.88269691
C       -3.32855247       2.11000806       6.00805751
Br      -4.37727231       2.26940797       8.70782559
H       -1.84526407       0.58163159       3.66874164
H       -2.57712878       1.36773590       6.23554491
C        1.78429378      -1.78429378       1.78429378
C        2.43310190      -2.93921871       1.32072546
C        3.10293724      -3.43401088       2.42215966
N        2.83305795      -2.54534778       3.43347561
H        3.17904721      -2.54926082       4.38601857
N        2.01804058      -1.54045607       3.07256128
C        3.93093253      -4.59083074       2.54270306
N        4.26334533      -5.20632832       3.72438860
H        3.97109910      -4.96654072       4.66479684
N        5.06419038      -6.27464410       3.57577871
C        5.22306828      -6.35469089       2.25585727
C        4.54157285      -5.34493403       1.56011115
Br       6.25426638      -7.68172672       1.41851276
H        2.40896307      -3.36058355       0.32609067
H        4.50712192      -5.18047297       0.49281470
C       -0.00445707       0.01189536      -1.78238275
H       -0.66409135       0.67374010      -2.43557963
H        0.65740317      -0.63156657      -2.45157240
C       -0.90989263      -0.90692880      -0.91072765
C        0.90977584       0.90977584      -0.90977584
C       -0.00465871       1.77757030       0.00794375
H       -0.66225468       2.44313916      -0.64384735
H        0.64322798       2.43503045       0.67728295
C       -1.78241447       0.00034974      -0.00472694
H       -2.45427497      -0.65498947       0.64260836
H       -2.43311707       0.67328779      -0.65473579
C       -0.91132561       0.90220522       0.91563759
C       -0.01476271      -0.02253852       1.78660255
H       -0.67934791      -0.69751639       2.42135241
H        0.63392994       0.61504881       2.47327442
C        0.01484550      -1.77751727      -0.01636693
H        0.67870853      -2.42144646      -0.68295456
H       -0.62264859      -2.45592969       0.64226336
C        1.78714474       0.01002794       0.00389507
H        2.44202412       0.67113390       0.66197326
H        2.45385902      -0.65136977      -0.64189061
C        0.91606151      -0.90478549       0.90901405
