82
Properties=species:S:1:pos:R:3 pbc="F F F"
C        1.77144588       1.77144588      -1.77144588
N        1.72837163       3.12862735      -1.84510566
H        1.11774435       3.75952015      -1.33799796
N        2.62257789       3.64664898      -2.70791111
C        3.25109910       2.56291097      -3.19370721
C        2.75185949       1.36192410      -2.63600052
C        4.33206544       2.61933270      -4.18924081
C        4.83091185       3.82133389      -4.74639612
C        5.81058282       3.41006029      -5.61018917
N        5.85551601       2.05333517      -5.53863165
H        6.46622099       1.42300524      -6.04604274
N        4.96101047       1.53568564      -4.67567496
Br       6.88096239       4.48382037      -6.68053069
H        3.07572457       0.35299530      -2.84876871
H        4.50786256       4.83080500      -4.53418090
C       -1.77144588      -1.77144588      -1.77144588
N       -1.45356537      -3.00738709      -2.24115217
H       -0.59928981      -3.53077953      -2.08519312
N       -2.42158804      -3.55798918      -2.99756076
C       -3.38615316      -2.62250176      -2.99906235
C       -3.02464457      -1.48226754      -2.24287199
C       -4.66818496      -2.76763752      -3.70481647
C       -5.02894462      -3.90882490      -4.46087234
C       -6.28161754      -3.61796775      -4.93124699
N       -6.60173619      -2.38252498      -4.46322167
H       -7.45604768      -1.85961259      -4.61960870
N       -5.63330904      -1.83221656      -3.70684546
Br      -7.35124138      -4.69150561      -6.00256647
H       -3.61008001      -0.58873497      -2.07867360
H       -4.44430939      -4.80297633      -4.62556274
C       -1.77144588       1.77144588       1.77144588
N       -2.92994695       1.39576439       2.37639330
H       -3.38469128       0.49025017       2.34032101
N       -3.50132551       2.37929452       3.09651794
C       -2.66054717       3.41455009       2.93262001
C       -1.55914734       3.08202732       2.10860945
C       -2.86233024       4.73886320       3.53944552
C       -3.96441015       5.07043321       4.36379849
C       -3.75053481       6.38056502       4.69973245
N       -2.59286501       6.75873308       4.09588475
H       -2.13870515       7.66436117       4.13220265
N       -2.02180823       5.77481944       3.37574340
Br      -4.82365905       7.44988013       5.77177426
H       -0.73933327       3.72248593       1.81566938
H       -4.78468814       4.43065917       4.65750115
C        1.77144588      -1.77144588       1.77144588
N        3.00031307      -1.44686389       2.25492768
H        3.51744501      -0.58665751       2.11115994
N        3.55279103      -2.41666363       3.00768331
C        2.62596592      -3.38943489       2.99231646
C        1.48929853      -3.03130529       2.22918030
C        2.77626504      -4.67635814       3.68801578
C        3.91370788      -5.03357045       4.45136353
C        3.62992718      -6.29294716       4.90795794
N        2.40178857      -6.61998532       4.42570895
H        1.88524892      -7.48033396       4.56968608
N        1.84965790      -5.64983189       3.67288127
Br       4.70324989      -7.36236718       5.97969638
H        0.60250727      -3.62312704       2.05185427
H        4.80097076      -4.44240944       4.62946827
C       -0.00445707       0.01189536      -1.78238275
H       -0.66409135       0.67374010      -2.43557963
H        0.65740317      -0.63156657      -2.45157240
C       -0.90989263      -0.90692880      -0.91072765
C        0.90977584       0.90977584      -0.90977584
C       -0.00465871       1.77757030       0.00794375
H       -0.66225468       2.44313916      -0.64384735
H        0.64322798       2.43503045       0.67728295
C       -1.78241447       0.00034974      -0.00472694
H       -2.45427497      -0.65498947       0.64260836
H       -2.43311707       0.67328779      -0.65473579
C       -0.91132561       0.90220522       0.91563759
C       -0.01476271      -0.02253852       1.78660255
H       -0.67934791      -0.69751639       2.42135241
H        0.63392994       0.61504881       2.47327442
C        0.01484550      -1.77751727      -0.01636693
H        0.67870853      -2.42144646      -0.68295456
H       -0.62264859      -2.45592969       0.64226336
C        1.78714474       0.01002794       0.00389507
H        2.44202412       0.67113390       0.66197326
H        2.45385902      -0.65136977      -0.64189061
C        0.91606151      -0.90478549       0.90901405
