69
Properties=species:S:1:pos:R:3 pbc="F F F"
C        0.00000000       0.00000000       0.00000000
C        0.86154186       0.86154186      -0.86154186
N        0.81846760       2.21872332      -0.93520164
H        0.20784033       2.84961612      -0.42809394
N        1.71267386       2.73674495      -1.79800708
C        2.34119507       1.65300694      -2.28380318
C        1.84195546       0.45202008      -1.72609649
C        3.42216142       1.70942867      -3.27933679
C        3.92100782       2.91142987      -3.83649209
C        4.90067879       2.50015626      -4.70028515
N        4.94561199       1.14343115      -4.62872762
H        5.55631696       0.51310122      -5.13613871
N        4.05110644       0.62578161      -3.76577093
H        2.16582054      -0.55690873      -1.93886469
H        3.59795853       3.92090098      -3.62427688
C        5.73119777       3.33329822      -5.53077460
C        6.42675741       4.03105460      -6.22630951
Br       7.55141853       5.15926766      -7.35093063
C       -0.86154186      -0.86154186      -0.86154186
N       -0.44464401      -1.61055878      -1.91718977
H        0.49741573      -1.70222358      -2.28074254
N       -1.43925036      -2.29197943      -2.51619611
C       -2.52490446      -1.95191015      -1.80119059
C       -2.21303466      -1.05569743      -0.75133995
C       -3.87937658      -2.45332278      -2.07822752
C       -4.19027484      -3.35002894      -3.12862600
C       -5.54134236      -3.54284961      -3.01692825
N       -5.96073845      -2.79477996      -1.96225236
H       -6.90288256      -2.70340650      -1.59926783
N       -4.96572127      -2.11340958      -1.36352814
H       -2.89272282      -0.62562857      -0.02942512
H       -3.51129903      -3.78083767      -3.85099969
C       -6.37097860      -4.37493381      -3.84935817
C       -7.06579896      -5.07180433      -4.54651823
Br      -8.18926471      -6.19858502      -5.67376708
C       -0.86154186       0.86154186       0.86154186
N       -2.00361055       1.49169661       0.47708540
H       -2.44377097       1.47799612      -0.43621670
N       -2.57943418       2.20500251       1.46298922
C       -1.75873472       2.01030347       2.50896700
C       -0.66554332       1.17370115       2.18082757
C       -1.97255666       2.59866129       3.83970893
C       -3.06662272       3.43530756       4.16699950
C       -2.86900928       3.74629569       5.48581524
N       -1.72751232       3.11763877       5.87261968
H       -1.28778877       3.13181131       6.78595682
N       -1.15193207       2.40443644       4.88629048
H        0.13864011       0.85678360       2.82963302
H       -3.87145715       3.75270071       3.51897852
C       -3.70181723       4.57785995       6.31559339
C       -4.39929390       5.27429502       7.01053260
Br      -5.52705468       6.40037162       8.13419052
C        0.86154186      -0.86154186       0.86154186
N        1.59843406      -0.44725174       1.92670676
H        1.67937007       0.49250050       2.29868082
N        2.28306658      -1.44116730       2.52319203
C        1.95784594      -2.52362781       1.79653144
C        1.06774961      -2.21044253       0.74187989
C        2.46810675      -3.87619690       2.06662322
C        3.35836881      -4.18848114       3.12207984
C        3.56332505      -5.53693859       3.00085657
N        2.82780482      -5.95363560       1.93633034
H        2.74736809      -6.89342749       1.56476132
N        2.14332221      -4.95928779       1.34004900
H        0.64923634      -2.88764536       0.01089480
H        3.77734945      -3.51204926       3.85373768
C        4.39510230      -6.36664085       3.83352743
C        5.09171575      -7.06151650       4.53088927
Br       6.21808078      -8.18507165       5.65846439
