90
Properties=species:S:1:pos:R:3 pbc="F F F"
C        1.77144588       1.77144588      -1.77144588
N        1.72837163       3.12862735      -1.84510566
H        1.11774435       3.75952015      -1.33799796
N        2.62257789       3.64664898      -2.70791111
C        3.25109910       2.56291097      -3.19370721
C        2.75185949       1.36192410      -2.63600052
C        4.33206544       2.61933270      -4.18924081
C        4.83091185       3.82133389      -4.74639612
C        5.81058282       3.41006029      -5.61018917
N        5.85551601       2.05333517      -5.53863165
H        6.46622099       1.42300524      -6.04604274
N        4.96101047       1.53568564      -4.67567496
H        3.07572457       0.35299530      -2.84876871
H        4.50786256       4.83080500      -4.53418090
C        6.64110179       4.24320224      -6.44067862
C        7.33666144       4.94095862      -7.13621353
Br       8.46132255       6.06917168      -8.26083466
C       -1.77144588      -1.77144588      -1.77144588
N       -1.43917161      -2.99170638      -2.27122664
H       -0.57213441      -3.50119548      -2.14193257
N       -2.41106034      -3.54652164      -3.01955600
C       -3.39322685      -2.63020865      -2.98428176
C       -3.03893257      -1.49783250      -2.21301903
C       -4.68578989      -2.78681798      -3.66803108
C       -5.03931461      -3.92013488      -4.43919236
C       -6.30628737      -3.64485320      -4.87969171
N       -6.64082224      -2.42510246      -4.38155813
H       -7.50789452      -1.91608573      -4.51128871
N       -5.66852419      -1.87057225      -3.63327463
H       -3.63806860      -0.61922501      -2.02019497
H       -4.44097625      -4.79936721      -4.63250500
C       -7.13618746      -4.47779636      -5.71099883
C       -7.83122878      -5.17538626      -6.40721855
Br      -8.95505182      -6.30333013      -7.53294694
C       -1.77144588       1.77144588       1.77144588
N       -2.92792578       1.39463127       2.37954758
H       -3.38087812       0.48811237       2.34627198
N       -3.49984725       2.37846589       3.09882483
C       -2.66154047       3.41510702       2.93106978
C       -1.56115364       3.08315206       2.10547841
C       -2.86480234       4.74024924       3.53558737
C       -3.96586659       5.07125075       4.36152451
C       -3.75399916       6.38250801       4.69432512
N       -2.59835337       6.76180973       4.08731974
H       -2.14598524       7.66844181       4.12084192
N       -2.02675293       5.77759091       3.36802722
H       -0.74326339       3.72468917       1.80953602
H       -4.78422061       4.43039882       4.65822903
C       -4.58664339       7.21219934       5.52613992
C       -5.28398294       7.90706584       6.22278482
Br      -6.41152200       9.03060619       7.34920069
C        1.77144588      -1.77144588       1.77144588
N        2.98558884      -1.43398976       2.28252604
H        3.48966610      -0.56236846       2.16322789
N        3.54202172      -2.40724868       3.02786758
C        2.63320207      -3.39576242       2.97875278
C        1.50391453      -3.04408435       2.20178523
C        2.79427426      -4.69210571       3.65425898
C        3.92431682      -5.04285692       4.43146811
C        3.65516407      -6.31502118       4.86064704
N        2.44177178      -6.65494196       4.35076909
H        1.93828549      -7.52669880       4.47028468
N        1.88568102      -5.68132206       3.60536799
H        0.63113839      -3.64815982       1.99819038
H        4.79756258      -4.43944764       4.63583824
C        4.48793402      -7.14477454       5.69227409
C        5.18537885      -7.83969299       6.38876176
Br       6.31308815      -8.96331734       7.51492340
C       -0.00445707       0.01189536      -1.78238275
H       -0.66409135       0.67374010      -2.43557963
H        0.65740317      -0.63156657      -2.45157240
C       -0.90989263      -0.90692880      -0.91072765
C        0.90977584       0.90977584      -0.90977584
C       -0.00465871       1.77757030       0.00794375
H       -0.66225468       2.44313916      -0.64384735
H        0.64322798       2.43503045       0.67728295
C       -1.78241447       0.00034974      -0.00472694
H       -2.45427497      -0.65498947       0.64260836
H       -2.43311707       0.67328779      -0.65473579
C       -0.91132561       0.90220522       0.91563759
C       -0.01476271      -0.02253852       1.78660255
H       -0.67934791      -0.69751639       2.42135241
H        0.63392994       0.61504881       2.47327442
C        0.01484550      -1.77751727      -0.01636693
H        0.67870853      -2.42144646      -0.68295456
H       -0.62264859      -2.45592969       0.64226336
C        1.78714474       0.01002794       0.00389507
H        2.44202412       0.67113390       0.66197326
H        2.45385902      -0.65136977      -0.64189061
C        0.91606151      -0.90478549       0.90901405
