77
Properties=species:S:1:pos:R:3 pbc="F F F"
C        0.00000000       0.00000000       0.00000000
C        0.86166880       0.86166880      -0.86166880
N        0.71634911       2.20138997      -1.05792470
H        0.01632924       2.81810786      -0.66078921
N        1.64165087       2.71900023      -1.88894557
C        2.38466538       1.65752247      -2.21661102
C        1.94452105       0.46850777      -1.60454765
C        3.48491708       1.83285120      -3.10229812
C        4.41738729       1.95650326      -3.84548010
C        5.61406696       2.09604341      -4.79270913
C        6.55276317       2.20174666      -5.53238728
C        7.66504207       2.33691329      -6.40896200
C        8.14543279       3.50466361      -7.03230631
C        9.22470117       3.06799428      -7.75545529
N        9.33096806       1.72811927      -7.53993588
H       10.01781377       1.08584259      -7.91944333
N        8.38141943       1.24973400      -6.71286332
Br      10.33912334       4.09369521      -8.82795809
H        2.36134777      -0.52372027      -1.69700323
H        7.75668800       4.50976048      -6.95892668
C       -0.86166880      -0.86166880      -0.86166880
N       -0.63077021      -2.16562574      -1.17926782
H        0.14512801      -2.75063108      -0.88972323
N       -1.57952392      -2.69309338      -1.97697936
C       -2.42650181      -1.67509593      -2.15720112
C       -2.02954026      -0.50409099      -1.48394522
C       -3.57990274      -1.87283945      -2.96732421
C       -4.55871250      -2.01621984      -3.64443832
C       -5.81578841      -2.18170244      -4.50532864
C       -6.80187046      -2.30803627      -5.17699038
C       -7.96954614      -2.46757582      -5.97379540
C       -8.40906616      -3.61993514      -6.65340141
C       -9.57507524      -3.22034502      -7.25273047
N       -9.76558133      -1.91446518      -6.91897670
H      -10.52888554      -1.30432252      -7.18989162
N       -8.79005406      -1.42365029      -6.13031240
Br     -10.69282059      -4.24983396      -8.31812210
H       -2.52754427       0.45418182      -1.46126828
H       -7.93956266      -4.59186588      -6.69394663
C       -0.86166880       0.86166880       0.86166880
N       -2.05856695       0.50957708       1.40751974
H       -2.54865923      -0.37376500       1.32033207
N       -2.61511338       1.49124869       2.14323459
C       -1.72702217       2.48528356       2.04649313
C       -0.61020708       2.14966623       1.25770316
C       -1.99032323       3.71289720       2.71684598
C       -2.19001147       4.75544880       3.27391038
C       -2.42782919       6.09440981       3.98058049
C       -2.60964756       7.14330167       4.53394788
C       -2.83288442       8.38308426       5.19494867
C       -3.92636868       8.75595628       6.00007776
C       -3.63148737      10.04049826       6.37616511
N       -2.43653504      10.35657695       5.80591122
H       -1.92121027      11.22721728       5.87467214
N       -1.92043350       9.35242459       5.07115867
Br      -4.65413202      11.15049571       7.45614891
H        0.24665301       2.76247186       1.01881188
H       -4.79459416       8.16905595       6.26172505
C        0.86166880      -0.86166880       0.86166880
N        2.12536204      -0.57194664       1.27835509
H        2.67467748       0.25609302       1.07664184
N        2.66361832      -1.53646211       2.04951624
C        1.69439111      -2.45469126       2.10971649
C        0.54386220      -2.08764433       1.38606994
C        1.91626010      -3.64333848       2.86046781
C        2.07987159      -4.65170503       3.48779404
C        2.27072704      -5.94584960       4.28624285
C        2.41576957      -6.95926426       4.91186328
C        2.59607770      -8.15728198       5.65755767
C        3.72188896      -8.55801639       6.40249736
C        3.35951545      -9.77839738       6.91023791
N        2.09850798     -10.03446011       6.46605511
H        1.52355250     -10.84917130       6.65037589
N        1.60228535      -9.05103236       5.69069904
Br       4.38017289     -10.88324027       7.99736348
H       -0.37634980      -2.64125358       1.26972695
H        4.65329490      -8.02930788       6.54277238
