98
Properties=species:S:1:pos:R:3 pbc="F F F"
C        1.77157283       1.77157283      -1.77157283
N        1.62625313       3.11129399      -1.96782872
H        0.92623326       3.72801188      -1.57069323
N        2.55155489       3.62890425      -2.79884959
C        3.29456940       2.56742649      -3.12651504
C        2.85442507       1.37841179      -2.51445168
C        4.39482110       2.74275522      -4.01220214
C        5.32729132       2.86640728      -4.75538413
C        6.52397098       3.00594743      -5.70261315
C        7.46266720       3.11165068      -6.44229130
C        8.57494609       3.24681731      -7.31886602
C        9.05533682       4.41456764      -7.94221033
C       10.13460519       3.97789830      -8.66535931
N       10.24087208       2.63802330      -8.44983990
H       10.92771780       1.99574661      -8.82934735
N        9.29132345       2.15963802      -7.62276735
Br      11.24902736       5.00359923      -9.73786211
H        3.27125179       0.38618376      -2.60690726
H        8.66659203       5.41966450      -7.86883071
C       -1.77157283      -1.77157283      -1.77157283
N       -1.52327462      -3.06525906      -2.11684217
H       -0.73194911      -3.64115737      -1.85183190
N       -2.47679526      -3.59555454      -2.90695894
C       -3.34490991      -2.59004195      -3.05355908
C       -2.95672895      -1.42421095      -2.36634865
C       -4.50911249      -2.79421180      -3.84645417
C       -5.49733587      -2.94323865      -4.50850821
C       -6.76667590      -3.11613437      -5.34972129
C       -7.76237406      -3.24834927      -6.00588585
C       -8.94128595      -3.41482384      -6.78451964
C       -9.37245909      -4.56267425      -7.47698144
C      -10.55608576      -4.17368878      -8.04808826
N      -10.76374569      -2.87763529      -7.68735430
H      -11.54259121      -2.27671128      -7.93350928
N       -9.78297115      -2.38333371      -6.90742397
Br     -11.67445396      -5.20413922      -9.11189553
H       -3.47123699      -0.47568773      -2.31741808
H       -8.88652315      -5.52504966      -7.54351442
C       -1.77157283       1.77157283       1.77157283
N       -2.96264730       1.41534238       2.32738617
H       -3.44757607       0.52833051       2.24903180
N       -3.52078894       2.39815302       3.06036678
C       -2.63977205       3.39721855       2.95152033
C       -1.52589603       3.06368645       2.15770606
C       -2.90668739       4.62741999       3.61567108
C       -3.10952453       5.67224376       4.16731445
C       -3.35144344       7.01418587       4.86690225
C       -3.53647608       8.06544038       5.41469272
C       -3.76346743       9.30800688       6.06915512
C       -4.85414928       9.67904725       6.87891825
C       -4.56516033      10.96785530       7.24484717
N       -3.37595563      11.28790419       6.66487545
H       -2.86583162      12.16225773       6.72472241
N       -2.85810591      10.28236053       5.93326238
Br      -5.58800112      12.07821929       8.32426831
H       -0.67455969       3.68042056       1.90936255
H       -5.71687181       9.08829138       7.14992405
C        1.77157283      -1.77157283       1.77157283
N        3.02583166      -1.47097710       2.20856708
H        3.56678223      -0.63329601       2.02486013
N        3.56667046      -2.43848267       2.97415561
C        2.60890272      -3.36992732       3.00968090
C        1.46313624      -3.00836045       2.27579186
C        2.83662066      -4.56536468       3.74779313
C        3.00532228      -5.57968519       4.36407526
C        3.20280022      -6.88163171       5.14809963
C        3.35302458      -7.90121807       5.76236653
C        3.53937762      -9.10649728       6.49475452
C        4.66059731      -9.50234675       7.24917073
C        4.30774409     -10.73390016       7.73621855
N        3.05608483     -11.00044573       7.27220472
H        2.48954907     -11.82490472       7.43835797
N        2.55707824     -10.01343036       6.50322023
Br       5.32864587     -11.83960278       8.82224006
H        0.55187184      -3.57228954       2.14018142
H        5.58307055      -8.96348356       7.40853313
C       -0.00445707       0.01189536      -1.78238275
H       -0.66409135       0.67374010      -2.43557963
H        0.65740317      -0.63156657      -2.45157240
C       -0.90989263      -0.90692880      -0.91072765
C        0.90977584       0.90977584      -0.90977584
C       -0.00465871       1.77757030       0.00794375
H       -0.66225468       2.44313916      -0.64384735
H        0.64322798       2.43503045       0.67728295
C       -1.78241447       0.00034974      -0.00472694
H       -2.45427497      -0.65498947       0.64260836
H       -2.43311707       0.67328779      -0.65473579
C       -0.91132561       0.90220522       0.91563759
C       -0.01476271      -0.02253852       1.78660255
H       -0.67934791      -0.69751639       2.42135241
H        0.63392994       0.61504881       2.47327442
C        0.01484550      -1.77751727      -0.01636693
H        0.67870853      -2.42144646      -0.68295456
H       -0.62264859      -2.45592969       0.64226336
C        1.78714474       0.01002794       0.00389507
H        2.44202412       0.67113390       0.66197326
H        2.45385902      -0.65136977      -0.64189061
C        0.91606151      -0.90478549       0.90901405
