146
Properties=species:S:1:pos:R:3 pbc="F F F"
C        1.81565439       1.81565439      -1.81565439
H        1.35373805       1.84798717      -2.80870786
C        1.98163807       3.20499066      -1.24115055
N        3.17720788       3.71863061      -1.92353944
C        4.09310633       2.56703900      -2.03287129
H        4.80097417       2.60975495      -1.19620749
C        3.23868307       1.30063572      -1.89778777
C        4.82093378       2.60703271      -3.27938614
C        5.42081158       2.63998604      -4.30677894
C        6.11033773       2.67786802      -5.48768988
C        6.71022676       2.71082980      -6.51508116
C        7.43806025       2.75081592      -7.76159839
H        6.74456633       2.65136669      -8.60614571
N        8.16786597       4.02018237      -7.90312582
C        9.20542697       3.72532228      -8.90013481
C        9.68460521       2.32805131      -8.54970681
H       10.55756859       2.35938429      -7.88876689
C        8.50990274       1.66269688      -7.84921507
H        2.15716813       3.19405946      -0.15846546
H        1.11152864       3.84140328      -1.43165037
H        2.91319737       4.01476276      -2.86487399
H        3.35149019       0.59650449      -2.73084163
H        3.52765209       0.76916154      -0.98164527
H        8.61638600       4.23670509      -7.01140735
H        8.76633774       3.78734301      -9.90282044
H       10.01637512       4.45931378      -8.85046798
H        8.12048211       0.78064846      -8.37076793
H        8.83164519       1.32759704      -6.85401612
C       10.08892972       1.60278032      -9.72618617
C       10.42755150       0.99536587     -10.71148763
Br      10.97507428       0.01322807     -12.30463676
C       -1.81565439      -1.81565439      -1.81565439
H       -2.85728926      -1.55163958      -1.60150425
C       -1.49661311      -1.64666351      -3.28450267
N       -2.06543680      -2.85305361      -3.90088751
C       -1.80712374      -3.94410398      -2.94178890
H       -0.89220113      -4.46420034      -3.25053513
C       -1.57137369      -3.29176872      -1.57396415
C       -2.90681665      -4.87971469      -2.92082129
C       -3.81319615      -5.65085180      -2.90352861
C       -4.85501041      -6.53722657      -2.88365865
C       -5.76138825      -7.30837292      -2.86637654
C       -6.86108108      -8.24399115      -2.84540234
H       -7.77058101      -7.74832956      -2.48316816
N       -7.12343009      -8.77634332      -4.19140076
C       -7.86858033     -10.01782704      -3.94447669
C       -7.18751721     -10.63743759      -2.73740854
H       -6.41446164     -11.35267840      -3.03857973
C       -6.56901871      -9.47192252      -1.98087346
H       -0.41768998      -1.61278428      -3.47921880
H       -1.94027849      -0.73876066      -3.70554314
H       -3.07564462      -2.72905735      -3.98813216
H       -2.22680235      -3.67115507      -0.78087889
H       -0.53690104      -3.48211101      -1.25944684
H       -6.22937747      -9.00710441      -4.62801657
H       -8.92156165      -9.77304298      -3.76189656
H       -7.83109584     -10.67750604      -4.81755501
H       -6.96861630      -9.33380395      -0.96947824
H       -5.49005177      -9.64780930      -1.87539729
C       -8.12535895     -11.36786124      -1.92467602
C       -8.91080141     -11.97959106      -1.24401254
Br     -10.18079544     -12.96870642      -0.14343725
C       -1.81565439       1.81565439       1.81565439
H       -2.80367577       1.86247237       1.34428495
C       -1.90630032       1.29031629       3.23116267
N       -2.36242564       2.45526978       4.00168251
C       -1.66882545       3.61496726       3.40922391
H       -0.77439408       3.82397070       4.00857183
C       -1.23639765       3.20448771       1.99622120
C       -2.52538509       4.77747093       3.40449661
C       -3.23136945       5.73561814       3.40058896
C       -4.04284417       6.83694493       3.39610653
C       -4.74882776       7.79509845       3.39221151
C       -5.60538423       8.95761052       3.38747981
H       -6.47676749       8.78091236       2.74439887
N       -6.08111673       9.26494722       4.74511023
C       -6.48587102      10.67492853       4.67008451
C       -5.42193083      11.33154616       3.80888634
H       -4.62228252      11.76215971       4.42127754
C       -4.87625305      10.22055024       2.92501140
H       -0.93621280       0.95526608       3.61821417
H       -2.60807276       0.45499934       3.32151019
H       -3.36728832       2.56853231       3.85701349
H       -1.59004018       3.88037136       1.20842477
H       -0.13975186       3.19260330       1.94610373
H       -5.29434002       9.17938863       5.39076980
H       -7.48866603      10.73663441       4.23120075
H       -6.53594437      11.12181182       5.66840069
H       -5.03432355      10.38480807       1.85276687
H       -3.79150052      10.14323588       3.07852196
C       -5.97043813      12.41393122       3.03352686
C       -6.42981299      13.32042871       2.38416330
Br      -7.17258329      14.78615848       1.33419734
C        1.81565439      -1.81565439       1.81565439
H        1.33022471      -1.88467573       2.79553265
C        2.03111201      -3.18538777       1.21127950
N        3.22206662      -3.68640766       1.91090365
C        4.10539031      -2.51560943       2.07201688
H        4.83464643      -2.51946709       1.25282309
C        3.22265108      -1.26775924       1.94669625
C        4.80286276      -2.56922764       3.33526223
C        5.37772136      -2.61341060       4.37644459
C        6.03848992      -2.66419992       5.57320579
C        6.61335999      -2.70839101       6.61438671
C        7.31083824      -2.76200154       7.87763479
H        6.59430870      -2.70129042       8.70647960
N        8.06895411      -4.01606735       8.00615271
C        9.07363678      -3.72101683       9.03623045
C        9.52566986      -2.30383279       8.73286068
H       10.41527004      -2.29668911       8.09376062
C        8.35216020      -1.65021630       8.01943819
H        2.23310320      -3.14257732       0.13401253
H        1.17301162      -3.84782140       1.36374927
H        2.94240901      -4.01283873       2.83758639
H        3.29682148      -0.58245970       2.79955512
H        3.52064187      -0.70615634       1.05166069
H        8.54481140      -4.19865367       7.12103338
H        8.61153591      -3.81938623      10.02557904
H        9.90397058      -4.43317111       8.98901519
H        7.92762030      -0.79164516       8.55263302
H        8.68985817      -1.28204062       7.04135956
C        9.88211938      -1.59891084       9.93686599
C       10.18064585      -1.00853871      10.94522044
Br      10.66333791      -0.05395690      12.57564430
C       -0.00445707       0.01189536      -1.78238275
H       -0.66409135       0.67374010      -2.43557963
H        0.65740317      -0.63156657      -2.45157240
C       -0.90989263      -0.90692880      -0.91072765
C        0.90977584       0.90977584      -0.90977584
C       -0.00465871       1.77757030       0.00794375
H       -0.66225468       2.44313916      -0.64384735
H        0.64322798       2.43503045       0.67728295
C       -1.78241447       0.00034974      -0.00472694
H       -2.45427497      -0.65498947       0.64260836
H       -2.43311707       0.67328779      -0.65473579
C       -0.91132561       0.90220522       0.91563759
C       -0.01476271      -0.02253852       1.78660255
H       -0.67934791      -0.69751639       2.42135241
H        0.63392994       0.61504881       2.47327442
C        0.01484550      -1.77751727      -0.01636693
H        0.67870853      -2.42144646      -0.68295456
H       -0.62264859      -2.45592969       0.64226336
C        1.78714474       0.01002794       0.00389507
H        2.44202412       0.67113390       0.66197326
H        2.45385902      -0.65136977      -0.64189061
C        0.91606151      -0.90478549       0.90901405
