146
Properties=species:S:1:pos:R:3 pbc="F F F"
C        1.81602384       1.81602384      -1.81602384
H        1.33605160       1.88617928      -2.79757101
N        1.94847162       3.13271767      -1.20081646
C        3.15359882       3.68712170      -1.82879934
C        4.12130113       2.50999341      -1.98421555
H        4.80854059       2.49273467      -1.12846750
C        3.22923813       1.26773846      -1.91150303
C        4.87808582       2.57935572      -3.21205445
C        5.50184127       2.63653466      -4.22405538
C        6.21879405       2.70226017      -5.38727396
C        6.84253815       2.75943091      -6.39927696
C        7.59932827       2.82879937      -7.62712159
H        6.93590885       2.74116874      -8.49716790
C        8.41082107       4.11567852      -7.73696335
N        9.47894836       3.80614668      -8.69112463
C        9.84079643       2.41434169      -8.43017304
H       10.76836428       2.34426097      -7.85246371
C        8.67587774       1.74938478      -7.70928091
H        2.11970529       2.99123909      -0.20484266
H        2.88258061       4.13153953      -2.79496922
H        3.58288471       4.48510072      -1.21352966
H        3.33481198       0.60201718      -2.77654223
H        3.50755202       0.68469351      -1.02395269
H        8.85640395       4.40344208      -6.77551214
H        7.80209177       4.95739251      -8.08199416
H        9.10037249       3.84105233      -9.63969044
H        8.28653542       0.85043719      -8.20130120
H        9.00295648       1.44736340      -6.70450069
C       10.09275282       1.78079657      -9.69853362
C       10.30376630       1.25020254     -10.76078561
Br      10.64495724       0.39227686     -12.47835723
C       -1.81602384      -1.81602384      -1.81602384
H       -2.85895842      -1.57980870      -1.58103478
N       -1.51911954      -1.54413935      -3.21874685
C       -2.01943296      -2.73571263      -3.91437426
C       -1.70192966      -3.91881810      -2.99476233
H       -0.75185646      -4.37231473      -3.30557157
C       -1.50649045      -3.28906413      -1.61292503
C       -2.74323054      -4.91914926      -3.00711620
C       -3.60148600      -5.74363689      -3.01730842
C       -4.58798774      -6.69131597      -3.02902446
C       -5.44624537      -7.51579486      -3.03920579
C       -6.48755214      -8.51613138      -3.05156570
H       -7.42166896      -8.10873944      -2.64383709
C       -6.74436481      -9.06951214      -4.44958599
N       -7.37526726     -10.37329161      -4.22766079
C       -6.72567155     -10.92112104      -3.03851856
H       -5.98188901     -11.67987400      -3.30332595
C       -6.10284154      -9.76675842      -2.26494347
H       -0.50433484      -1.49654168      -3.31491051
H       -3.09715738      -2.62338715      -4.08854483
H       -1.54207091      -2.84542605      -4.89401812
H       -2.15119139      -3.72300103      -0.83917897
H       -0.46915879      -3.45354375      -1.29349569
H       -5.81252552      -9.20948933      -5.01334332
H       -7.38987183      -8.41161768      -5.03998893
H       -8.35904124     -10.23248132      -3.98959270
H       -6.43113471      -9.68493569      -1.22220341
H       -5.01163242      -9.89608404      -2.24710412
C       -7.73416070     -11.58453516      -2.25338715
C       -8.57877036     -12.14014449      -1.59583959
Br      -9.94443275     -13.03851778      -0.53264080
C       -1.81602384       1.81602384       1.81602384
H       -2.81421745       1.83880498       1.36677946
N       -1.85933506       1.25863209       3.16403858
C       -2.28346460       2.39318467       3.99287058
C       -1.59265376       3.62434355       3.39851278
H       -0.66303242       3.81732167       3.94938868
C       -1.22954006       3.20854461       1.97039494
C       -2.43231404       4.79842779       3.43875416
C       -3.12437639       5.76612358       3.47193134
C       -3.91985300       6.87841014       3.51006504
C       -4.61191669       7.84609977       3.54322956
C       -5.45158298       9.02018936       3.58347688
H       -6.33844892       8.88469160       2.95110498
C       -5.88998062       9.37202763       5.00145469
N       -6.23538657      10.79495949       4.94587360
C       -5.27593315      11.39102877       4.01834923
H       -4.48490571      11.92803250       4.55215074
C       -4.71156964      10.28060532       3.14236847
H       -0.90769883       0.99097272       3.41711548
H       -3.37738774       2.47402806       3.95767356
H       -2.00302989       2.23825306       5.04023214
H       -1.62210826       3.88743391       1.20382922
H       -0.13642040       3.21053173       1.86924609
H       -5.08171161       9.22384822       5.72979834
H       -6.74259509       8.76920353       5.32967982
H       -7.15989949      10.89831754       4.52289823
H       -4.83072216      10.44280634       2.06474531
H       -3.63346745      10.18725174       3.33410139
C       -5.97875827      12.36694746       3.22637728
C       -6.56737430      13.18427937       2.56310078
Br      -7.51911664      14.50583593       1.49063876
C        1.81602384      -1.81602384       1.81602384
H        1.33231006      -1.89220977       2.79528206
N        1.95644264      -3.12960778       1.19595532
C        3.16125596      -3.68163778       1.82662612
C        4.12343760      -2.50118913       1.99088336
H        4.81411594      -2.47756586       1.13806096
C        3.22655530      -1.26232617       1.91959814
C        4.87544281      -2.57250980       3.22154338
C        5.49525897      -2.63130284       4.23586950
C        6.20768386      -2.69888365       5.40176066
C        6.82748865      -2.75766855       6.41608883
C        7.57949928      -2.82899537       7.64675458
H        6.91214826      -2.74769211       8.51440511
C        8.39584435      -4.11296680       7.75465179
N        9.45874738      -3.80298742       8.71448486
C        9.81591152      -2.40863848       8.46076116
H       10.74555158      -2.33235405       7.88718333
C        8.65123153      -1.74550805       7.73780385
H        2.13118773      -2.98331094       0.20128836
H        2.88810261      -4.13115622       2.78983053
H        3.59636445      -4.47529382       1.20985682
H        3.32581608      -0.59975656       2.78779875
H        3.50610776      -0.67447785       1.03561262
H        8.84656579      -4.39491836       6.79387403
H        7.78918385      -4.95859762       8.09369697
H        9.07641831      -3.84337055       9.66132639
H        8.25615591      -0.85021142       8.23190647
H        8.98119184      -1.43799335       6.73563539
C       10.06002541      -1.77930880       9.73274880
C       10.26447080      -1.25224519      10.79803845
Br      10.59504169      -0.40002792      12.52052172
C       -0.00445707       0.01189536      -1.78238275
H       -0.66409135       0.67374010      -2.43557963
H        0.65740317      -0.63156657      -2.45157240
C       -0.90989263      -0.90692880      -0.91072765
C        0.90977584       0.90977584      -0.90977584
C       -0.00465871       1.77757030       0.00794375
H       -0.66225468       2.44313916      -0.64384735
H        0.64322798       2.43503045       0.67728295
C       -1.78241447       0.00034974      -0.00472694
H       -2.45427497      -0.65498947       0.64260836
H       -2.43311707       0.67328779      -0.65473579
C       -0.91132561       0.90220522       0.91563759
C       -0.01476271      -0.02253852       1.78660255
H       -0.67934791      -0.69751639       2.42135241
H        0.63392994       0.61504881       2.47327442
C        0.01484550      -1.77751727      -0.01636693
H        0.67870853      -2.42144646      -0.68295456
H       -0.62264859      -2.45592969       0.64226336
C        1.78714474       0.01002794       0.00389507
H        2.44202412       0.67113390       0.66197326
H        2.45385902      -0.65136977      -0.64189061
C        0.91606151      -0.90478549       0.90901405
