117
Properties=species:S:1:pos:R:3 pbc="F F F"
C        0.00000000       0.00000000       0.00000000
C        0.90611982       0.90611982      -0.90611982
H        0.42614758       0.97627525      -1.88766699
N        1.03856759       2.22281364      -0.29091243
C        2.24369479       2.77721768      -0.91889532
C        3.21139711       1.60008938      -1.07431153
H        3.89863656       1.58283065      -0.21856348
C        2.31933410       0.35783443      -1.00159901
C        3.96818180       1.66945170      -2.30215042
C        4.59193724       1.72663064      -3.31415136
C        5.30889002       1.79235614      -4.47736994
C        5.93263413       1.84952689      -5.48937293
C        6.68942424       1.91889534      -6.71721756
H        6.02600483       1.83126471      -7.58726388
C        7.50091705       3.20577450      -6.82705932
N        8.56904433       2.89624265      -7.78122060
C        8.93089241       1.50443766      -7.52026901
H        9.85846025       1.43435694      -6.94255969
C        7.76597371       0.83948076      -6.79937689
Br       9.27042967       0.65067017      -9.22951593
H        1.20980126       2.08133507       0.70506137
H        1.97267658       3.22163550      -1.88506520
H        2.67298068       3.57519669      -0.30362564
H        2.42490796      -0.30788685      -1.86663821
H        2.59764799      -0.22521051      -0.11404867
H        7.94649993       3.49353805      -5.86560811
H        6.89218774       4.04748849      -7.17209013
H        8.19046847       2.93114830      -8.72978642
H        7.37663139      -0.05946684      -7.29139718
H        8.09305246       0.53745938      -5.79459666
C       -0.90611982      -0.90611982      -0.90611982
H       -0.25764790      -1.38628378      -1.64615814
N       -1.57893938      -1.89882846      -0.07452583
C       -2.71628102      -2.32511041      -0.89841635
C       -3.20774797      -1.06345325      -1.61459679
H       -4.03454648      -0.62297344      -1.04251077
C       -2.01713723      -0.10238998      -1.55924033
C       -3.64226612      -1.33236432      -2.96515349
C       -4.00040794      -1.55401238      -4.07829891
C       -4.41205930      -1.80878412      -5.35777268
C       -4.77018766      -2.03042790      -6.47091839
C       -5.20471138      -2.29934514      -7.82148063
H       -4.36405749      -2.64201725      -8.43845868
C       -6.32624846      -3.33174647      -7.87575593
N       -6.99390603      -3.09428064      -9.15832092
C       -6.95678720      -1.64617364      -9.35263825
H       -7.92432801      -1.18740684      -9.12364204
C       -5.84381093      -1.07984003      -8.48118041
Br      -6.60887243      -1.30985643     -11.23188691
H       -1.92398199      -1.42003594       0.75794296
H       -2.38001722      -3.09713724      -1.60222283
H       -3.50207954      -2.77067030      -0.27905318
H       -1.70756325       0.26787376      -2.54396983
H       -2.29893676       0.77478859      -0.96233797
H       -7.04926071      -3.19580678      -7.06057860
H       -5.94576929      -4.35595237      -7.81004471
H       -6.43565352      -3.50820538      -9.90754428
H       -5.09214022      -0.49372553      -9.02269599
H       -6.28484562      -0.41414411      -7.72611878
C       -0.90611982       0.90611982       0.90611982
H       -0.42586271       0.97673225       1.88749486
N       -1.03917167       2.22257972       0.29054228
C       -2.24427580       2.77680333       0.91872865
C       -3.21156132       1.59942122       1.07481547
H       -3.89906284       1.58168003       0.21928782
C       -2.31913265       0.35742254       1.00221235
C       -3.96798378       1.66893091       2.30286923
C       -4.59144066       1.72623133       3.31504725
C       -5.30805027       1.79209645       4.47846937
C       -5.93149582       1.84938867       5.49064946
C       -6.68792370       1.91890450       6.71870895
H       -6.02420495       1.83175337       7.58857511
C       -7.49978452       3.20556419       6.82840216
N       -8.56751661       2.89599684       7.78299414
C       -8.92901098       1.50399725       7.52259085
H       -9.85673742       1.43344590       6.94519356
C       -7.76410982       0.83917916       6.80154238
Br      -9.26774686       0.65065822       9.23221069
H       -1.21067245       2.08073616      -0.70533364
H       -1.97309455       3.22160798       1.88467475
H       -2.67400355       3.57445565       0.30334381
H       -2.42422788      -0.30806116       1.86749260
H       -2.59754165      -0.22598691       0.11493141
H       -7.94575793       3.49288775       5.86700043
H       -6.89121063       4.04757630       7.17297943
H       -8.18865515       2.93131747       8.73143056
H       -7.37433260      -0.05949277       7.29372190
H       -8.09140821       0.53674134       5.79695896
C        0.90611982      -0.90611982       0.90611982
H        1.79903914      -0.32728863       1.16376205
N        0.16298688      -1.28606546       2.10324133
C        0.87721229      -2.47198937       2.59060613
C        1.29929294      -3.24753921       1.33896586
H        0.55173684      -4.02252733       1.12576652
C        1.25475088      -2.21156538       0.21245129
C        2.60079081      -3.85627703       1.48271608
C        3.67350178      -4.35801153       1.60120593
C        4.90650071      -4.93471092       1.73740447
C        5.97921315      -5.43643292       1.85588788
C        7.28071666      -6.04517622       1.99964427
H        8.05794012      -5.27784052       2.10875278
C        7.34568799      -7.00348699       3.18457588
N        8.46454902      -7.89998616       2.88197242
C        8.42095980      -8.09983978       1.43479951
H        7.98548839      -9.07131103       1.17857747
C        7.63379643      -6.94960476       0.82143017
Br      10.24916079      -8.11712592       0.78432906
H       -0.77717645      -1.55326485       1.80998656
H        1.73883398      -2.15084216       3.18970115
H        0.23522071      -3.07429449       3.24228781
H        2.19870800      -2.12372881      -0.33877749
H        0.48784754      -2.51197072      -0.51333211
H        6.42560832      -7.59419791       3.28583987
H        7.50385739      -6.47688878       4.13102020
H        9.34280998      -7.42007719       3.08851602
H        8.17183110      -6.38760227       0.04912837
H        6.72488655      -7.34960401       0.35061794
