122
Properties=species:S:1:pos:R:3 pbc="F F F"
C        3.31255840      -2.52075903      -4.70486982
C        3.78596258      -1.88709708      -3.40667361
C        3.24201480      -0.46611501      -3.24455430
C        3.68407745       0.14327378      -1.90699027
N        3.25387017       1.52761406      -1.73932693
C        1.83041369       1.83041369      -1.83041369
C        1.76974682       3.26152751      -1.32242498
C        2.78461814       3.28274256      -0.18513832
C        3.77833948       2.17924973      -0.54238103
Br       5.51209437       2.97425386      -0.95648188
H        3.72349708      -3.53028544      -4.80580048
H        3.63578180      -1.93343803      -5.57023350
H        2.22041542      -2.59569980      -4.72863064
H        4.88177030      -1.86968786      -3.39289344
H        3.46012521      -2.50929507      -2.56513522
H        2.14863682      -0.49619130      -3.31095849
H        3.60039086       0.15891132      -4.07208533
H        4.78056254       0.10710100      -1.87677991
H        3.33982319      -0.48720572      -1.07839274
H        1.43743762       1.75070972      -2.84820133
H        2.09834015       3.95206919      -2.10975620
H        0.77731711       3.58190632      -0.98950723
H        3.21516442       4.28094359      -0.05813826
H        2.27651082       3.02470571       0.75285285
H        3.93290655       1.50210784       0.30468555
C        1.57826846      -5.98131482      -1.09362282
C        1.53098460      -4.79433073      -2.04219299
C        0.15235987      -4.13044390      -2.04237007
C        0.13254101      -2.90308024      -2.96380228
N       -1.18356178      -2.27965168      -3.05759771
C       -1.83041369      -1.83041369      -1.83041369
C       -2.99099095      -1.00369545      -2.35901292
C       -2.40015349      -0.28547882      -3.56686671
C       -1.26783955      -1.19759030      -4.03454038
Br      -1.71535095      -1.94738471      -5.78009446
H        2.56816221      -6.44784534      -1.11932899
H        0.83793189      -6.73781715      -1.37269200
H        1.37822053      -5.66782989      -0.06373690
H        1.78135737      -5.13188692      -3.05444632
H        2.29492621      -4.06713210      -1.74375948
H       -0.10285038      -3.84488332      -1.01567032
H       -0.60186653      -4.85466290      -2.37485807
H        0.43744856      -3.23861594      -3.96327607
H        0.89547983      -2.18375417      -2.64273587
H       -2.18044809      -2.65428484      -1.20161575
H       -3.79932196      -1.66582109      -2.69502248
H       -3.41383581      -0.30140862      -1.63348622
H       -3.17016465      -0.06988263      -4.31419897
H       -1.98200829       0.67599135      -3.24234675
H       -0.33700463      -0.63380015      -4.15952406
C       -5.00258641      -2.42832210       2.92240487
C       -4.92825623      -1.41466647       1.79194936
C       -4.06109695      -0.21258968       2.17194682
C       -3.95154402       0.77807978       1.00471770
N       -3.19681469       1.98014409       1.34385238
C       -1.83041369       1.83041369       1.83041369
C       -1.31115494       3.25802832       1.78451605
C       -1.92288775       3.82229001       0.50732126
C       -3.19536670       3.00296552       0.30163802
Br      -4.75463562       4.15352870       0.53466580
H       -5.63734987      -3.27210072       2.63376296
H       -5.42431923      -1.97874242       3.82700045
H       -4.00868904      -2.81923183       3.16388904
H       -5.94115037      -1.07848890       1.54231441
H       -4.51867610      -1.90274732       0.90003659
H       -3.06848101      -0.57147724       2.46640025
H       -4.49631089       0.29062756       3.04444905
H       -4.97214235       1.06816873       0.72413237
H       -3.53037924       0.27410258       0.12652838
H       -1.77631053       1.41790227       2.84213587
H       -1.69254207       3.82252990       2.64509356
H       -0.21973972       3.34290403       1.78608691
H       -2.06690946       4.90463960       0.58269721
H       -1.23526503       3.64198915      -0.32889049
H       -3.24379986       2.60386407      -0.71733508
C       -2.00726471      -5.65977271       1.84416118
C       -1.75258253      -4.40083689       2.65728476
C       -0.32546950      -3.88491415       2.46100944
C       -0.09701711      -2.58569294       3.24566567
N        1.27402674      -2.09470683       3.15207759
C        1.83041369      -1.83041369       1.83041369
C        3.11099897      -1.08167157       2.16102877
C        2.71672673      -0.19732476       3.33844753
C        1.55849703      -0.94084052       4.00063268
Br       2.11118258      -1.56694213       5.76470541
H       -3.02837627      -6.01775495       2.00963343
H       -1.31580126      -6.45903768       2.12934085
H       -1.88574088      -5.46568157       0.77340557
H       -1.92799611      -4.61523966       3.71773233
H       -2.47213841      -3.62997058       2.35813320
H       -0.15158659      -3.72384628       1.39114432
H        0.38823931      -4.64866330       2.79448489
H       -0.32756368      -2.79368343       4.29832370
H       -0.81863661      -1.82483209       2.92481473
H        2.03584062      -2.74078860       1.25971946
H        3.88442950      -1.78915496       2.48658107
H        3.52060181      -0.49709038       1.33103846
H        3.57611472       0.00665196       3.98478351
H        2.35874984       0.76761467       2.95722852
H        0.70193576      -0.27527046       4.15312263
C       -0.00445707       0.01189536      -1.78238275
H       -0.66409135       0.67374010      -2.43557963
H        0.65740317      -0.63156657      -2.45157240
C       -0.90989263      -0.90692880      -0.91072765
C        0.90977584       0.90977584      -0.90977584
C       -0.00465871       1.77757030       0.00794375
H       -0.66225468       2.44313916      -0.64384735
H        0.64322798       2.43503045       0.67728295
C       -1.78241447       0.00034974      -0.00472694
H       -2.45427497      -0.65498947       0.64260836
H       -2.43311707       0.67328779      -0.65473579
C       -0.91132561       0.90220522       0.91563759
C       -0.01476271      -0.02253852       1.78660255
H       -0.67934791      -0.69751639       2.42135241
H        0.63392994       0.61504881       2.47327442
C        0.01484550      -1.77751727      -0.01636693
H        0.67870853      -2.42144646      -0.68295456
H       -0.62264859      -2.45592969       0.64226336
C        1.78714474       0.01002794       0.00389507
H        2.44202412       0.67113390       0.66197326
H        2.45385902      -0.65136977      -0.64189061
C        0.91606151      -0.90478549       0.90901405
