130
Properties=species:S:1:pos:R:3 pbc="F F F"
C        3.31255840      -2.52075903      -4.70486982
C        3.78596258      -1.88709708      -3.40667361
C        3.24201480      -0.46611501      -3.24455430
C        3.68407745       0.14327378      -1.90699027
N        3.25387017       1.52761406      -1.73932693
C        1.83041369       1.83041369      -1.83041369
C        1.76974682       3.26152751      -1.32242498
C        2.78461814       3.28274256      -0.18513832
C        3.77833948       2.17924973      -0.54238103
H        3.72349708      -3.53028544      -4.80580048
H        3.63578180      -1.93343803      -5.57023350
H        2.22041542      -2.59569980      -4.72863064
H        4.88177030      -1.86968786      -3.39289344
H        3.46012521      -2.50929507      -2.56513522
H        2.14863682      -0.49619130      -3.31095849
H        3.60039086       0.15891132      -4.07208533
H        4.78056254       0.10710100      -1.87677991
H        3.33982319      -0.48720572      -1.07839274
H        1.43743762       1.75070972      -2.84820133
H        2.09834015       3.95206919      -2.10975620
H        0.77731711       3.58190632      -0.98950723
H        3.21516442       4.28094359      -0.05813826
H        2.27651082       3.02470571       0.75285285
H        3.93290655       1.50210784       0.30468555
C        5.05748786       2.76579645      -0.84790082
C        6.12877464       3.25702934      -1.10377364
Br       7.86095474       4.05131136      -1.51749836
C        1.67215774      -5.92651914      -1.24230779
C        1.58305540      -4.72250725      -2.16608727
C        0.19206513      -4.08617523      -2.12634399
C        0.13017052      -2.84178240      -3.02272962
N       -1.19939024      -2.24283685      -3.07858408
C       -1.83041369      -1.83041369      -1.83041369
C       -3.01706759      -1.01673283      -2.31989888
C       -2.46432578      -0.26363526      -3.52453798
C       -1.32399660      -1.14388897      -4.03208467
H        2.67022140      -6.37276671      -1.29646681
H        0.94127022      -6.69197290      -1.52187459
H        1.48649528      -5.63711666      -0.20272487
H        1.81984000      -5.03531749      -3.18949839
H        2.33849144      -3.98625448      -1.86820233
H       -0.04825925      -3.82571696      -1.08942781
H       -0.55439173      -4.81859579      -2.45839998
H        0.42168277      -3.15174107      -4.03438515
H        0.88520526      -2.11385855      -2.70235692
H       -2.15186116      -2.67311111      -1.21137639
H       -3.81888383      -1.68808705      -2.65319466
H       -3.43901931      -0.33717987      -1.57253147
H       -3.25302795      -0.04885870      -4.25235961
H       -2.05858595       0.69944404      -3.18922177
H       -0.40694364      -0.55945397      -4.16393123
C       -1.66880173      -1.67839668      -5.32398673
C       -1.95757603      -2.12604689      -6.40595470
Br      -2.42449964      -2.84985942      -8.15540540
C       -5.13783828      -2.37022249       2.72905339
C       -5.00804522      -1.33032454       1.62781844
C       -4.12072721      -0.16148303       2.06120991
C       -3.95535826       0.85546016       0.92352308
N       -3.17932431       2.02827924       1.31320761
C       -1.83041369       1.83041369       1.83041369
C       -1.27384191       3.24463592       1.83522148
C       -1.83728319       3.85716819       0.55804765
C       -3.12444313       3.07699342       0.29853368
H       -5.78616021      -3.18942928       2.40228119
H       -5.57151453      -1.93299264       3.63405538
H       -4.16091814      -2.79308480       2.98551291
H       -6.00513354      -0.96145173       1.36129407
H       -4.58782914      -1.80603518       0.73417140
H       -3.14565805      -0.55366375       2.37140971
H       -4.56566469       0.33052135       2.93520146
H       -4.96051147       1.17926753       0.62466444
H       -3.52433090       0.36320976       0.04346955
H       -1.81339592       1.39092363       2.83202912
H       -1.66311106       3.79677747       2.70027701
H       -0.18103128       3.30081154       1.86688784
H       -1.95554317       4.94064240       0.65806069
H       -1.13281052       3.68032217      -0.26476901
H       -3.15633135       2.70545074      -0.73145325
C       -4.25691436       3.95105858       0.46321220
C       -5.20535901       4.68308815       0.60113045
Br      -6.73891381       5.86671805       0.82413261
C       -2.16359089      -5.47969839       2.18056168
C       -1.81890622      -4.19971490       2.92473043
C       -0.38120540      -3.75720916       2.64445033
C       -0.06224764      -2.43706342       3.35952572
N        1.32302690      -2.01252484       3.18525942
C        1.83041369      -1.83041369       1.83041369
C        3.15548944      -1.12635418       2.07185569
C        2.85273177      -0.17550082       3.22426643
C        1.69452196      -0.83722350       3.96822478
H       -3.19067621      -5.78409723       2.40559111
H       -1.49497365      -6.29619178       2.47135914
H       -2.08198956      -5.33738437       1.09795144
H       -1.95562735      -4.36032709       4.00027614
H       -2.51740705      -3.41090523       2.62246719
H       -0.24872327      -3.65016457       1.56196272
H        0.31330434      -4.53718013       2.98090304
H       -0.25406958      -2.58913756       4.42937547
H       -0.76421063      -1.65907863       3.03614220
H        1.97078163      -2.77273769       1.29282935
H        3.91166515      -1.85318613       2.39531426
H        3.55216984      -0.59688915       1.19967166
H        3.74820142       0.01728195       3.82332680
H        2.51976133       0.78727073       2.81587309
H        0.87501476      -0.12798015       4.12733394
C        2.14004376      -1.26069436       5.27044701
C        2.51316827      -1.61535121       6.36105814
Br       3.11647905      -2.18880134       8.12448408
C       -0.00445707       0.01189536      -1.78238275
H       -0.66409135       0.67374010      -2.43557963
H        0.65740317      -0.63156657      -2.45157240
C       -0.90989263      -0.90692880      -0.91072765
C        0.90977584       0.90977584      -0.90977584
C       -0.00465871       1.77757030       0.00794375
H       -0.66225468       2.44313916      -0.64384735
H        0.64322798       2.43503045       0.67728295
C       -1.78241447       0.00034974      -0.00472694
H       -2.45427497      -0.65498947       0.64260836
H       -2.43311707       0.67328779      -0.65473579
C       -0.91132561       0.90220522       0.91563759
C       -0.01476271      -0.02253852       1.78660255
H       -0.67934791      -0.69751639       2.42135241
H        0.63392994       0.61504881       2.47327442
C        0.01484550      -1.77751727      -0.01636693
H        0.67870853      -2.42144646      -0.68295456
H       -0.62264859      -2.45592969       0.64226336
C        1.78714474       0.01002794       0.00389507
H        2.44202412       0.67113390       0.66197326
H        2.45385902      -0.65136977      -0.64189061
C        0.91606151      -0.90478549       0.90901405
