122
Properties=species:S:1:pos:R:3 pbc="F F F"
C        1.79762508       1.79762508      -1.79762508
C        1.38066057       3.10662957      -2.04420434
C        2.16580590       3.94961078      -2.83310622
C        3.38238038       3.50483492      -3.37250161
C        3.77913841       2.17990626      -3.10950992
C        2.97977210       1.29878781      -2.36628654
N        3.49293406       0.03234067      -2.03224246
C        4.22738701       4.40146273      -4.17893885
C        4.62462111       5.65448411      -3.68757387
C        5.45408148       6.48911726      -4.43940578
C        5.88485742       6.08534057      -5.70391856
C        5.46089492       4.86544604      -6.25311324
C        4.67328468       4.01965007      -5.45858406
N        5.97616559       4.37267668      -7.46620297
Br       7.02994007       7.25059088      -6.67433983
H        0.45246373       3.48163381      -1.62238583
H        1.82152477       4.96502438      -3.02059154
H        4.74209484       1.83223277      -3.48026146
H        2.76971747      -0.61726661      -1.73167182
H        4.10949695      -0.36490714      -2.73345701
H        4.31380028       5.97807211      -2.69567367
H        5.76851346       7.44304343      -4.02444863
H        4.39346736       3.04248201      -5.84768355
H        5.36248465       3.71883735      -7.94139111
H        6.30659899       5.11452697      -8.07973130
C       -1.79762508      -1.79762508      -1.79762508
C       -2.95725725      -1.23794380      -2.33629342
C       -3.78263574      -2.00627073      -3.15961643
C       -3.45540802      -3.33515578      -3.46915310
C       -2.28094526      -3.87567544      -2.91193390
C       -1.46660345      -3.14011042      -2.03813258
N       -0.24301975      -3.69422595      -1.62027149
C       -4.30774452      -4.13784458      -4.36219949
C       -4.65661402      -3.67121292      -5.63885215
C       -5.43652138      -4.44838589      -6.49769725
C       -5.89209163      -5.70021903      -6.08180588
C       -5.61312782      -6.17526240      -4.79106398
C       -4.78290062      -5.40252723      -3.96609096
N       -5.94752899      -7.48084753      -4.38666872
Br      -6.93123721      -6.72481578      -7.29881778
H       -3.22313574      -0.20548351      -2.12786412
H       -4.68653590      -1.55544485      -3.56515993
H       -1.98647614      -4.88946562      -3.17864730
H        0.14411607      -3.22178594      -0.80645280
H       -0.25693398      -4.70363082      -1.51748203
H       -4.29470517      -2.70543877      -5.98740211
H       -5.67024308      -4.07470341      -7.49105902
H       -4.50488158      -5.79070709      -2.98804425
H       -6.05001527      -7.58979275      -3.38290508
H       -6.73894119      -7.85863452      -4.90328155
C       -1.79762508       1.79762508       1.79762508
C       -2.96230644       1.24084261       2.32834542
C       -3.78793837       2.00918023       3.15140431
C       -3.45602592       3.33509500       3.46859599
C       -2.27651671       3.87273309       2.91930480
C       -1.46153648       3.13744044       2.04586952
N       -0.23349000       3.68780435       1.63622284
C       -4.30877977       4.13759722       4.36141161
C       -4.66570411       3.66670668       5.63426830
C       -5.44598958       4.44351588       6.49309905
C       -5.89385447       5.69934871       6.08091337
C       -5.60673031       6.17903941       4.79368448
C       -4.77626245       5.40627880       3.96897756
N       -5.93323418       7.48800903       4.39380204
Br      -6.93389071       6.72312595       7.29785410
H       -3.23197288       0.21059617       2.11391431
H       -4.69577502       1.56068025       3.55068541
H       -1.97861618       4.88390878       3.19206410
H        0.15522838       3.21733280       0.82201826
H       -0.24227548       4.69772587       1.53804547
H       -4.30986832       2.69767082       5.98000692
H       -5.68602840       4.06634507       7.48363204
H       -4.49193135       5.79767096       2.99403061
H       -6.03056822       7.60205297       3.39009192
H       -6.72528038       7.86707143       4.90850545
C        1.79762508      -1.79762508       1.79762508
C        1.24467138      -2.96874691       2.31807618
C        2.02215200      -3.80975849       3.11661242
C        3.36315287      -3.50322269       3.39334135
C        3.89592391      -2.31552649       2.85710420
C        3.11772744      -1.42837680       2.09874221
N        3.74368347      -0.32748551       1.48634821
C        4.19426758      -4.40410623       4.20941479
C        4.31928806      -5.76342574       3.88396529
C        5.13495024      -6.60906668       4.63858760
C        5.82566654      -6.10633649       5.74211351
C        5.67955310      -4.76653330       6.13336780
C        4.89912588      -3.92316927       5.32922365
N        6.45679108      -4.19859956       7.15965460
Br       6.93848024      -7.29614295       6.72024758
H        0.21469784      -3.23887239       2.10291314
H        1.57226016      -4.71525384       3.51962668
H        4.94728772      -2.08522731       3.02207403
H        3.08099155       0.38457103       1.18770215
H        4.51991422       0.05682545       2.01495806
H        3.80291248      -6.16901987       3.01561370
H        5.23497287      -7.65180317       4.34922947
H        4.83184669      -2.86729689       5.58448935
H        6.03200528      -3.38955613       7.60115170
H        6.77582010      -4.88966227       7.83537489
C       -0.00445707       0.01189536      -1.78238275
H       -0.66409135       0.67374010      -2.43557963
H        0.65740317      -0.63156657      -2.45157240
C       -0.90989263      -0.90692880      -0.91072765
C        0.90977584       0.90977584      -0.90977584
C       -0.00465871       1.77757030       0.00794375
H       -0.66225468       2.44313916      -0.64384735
H        0.64322798       2.43503045       0.67728295
C       -1.78241447       0.00034974      -0.00472694
H       -2.45427497      -0.65498947       0.64260836
H       -2.43311707       0.67328779      -0.65473579
C       -0.91132561       0.90220522       0.91563759
C       -0.01476271      -0.02253852       1.78660255
H       -0.67934791      -0.69751639       2.42135241
H        0.63392994       0.61504881       2.47327442
C        0.01484550      -1.77751727      -0.01636693
H        0.67870853      -2.42144646      -0.68295456
H       -0.62264859      -2.45592969       0.64226336
C        1.78714474       0.01002794       0.00389507
H        2.44202412       0.67113390       0.66197326
H        2.45385902      -0.65136977      -0.64189061
C        0.91606151      -0.90478549       0.90901405
