130
Properties=species:S:1:pos:R:3 pbc="F F F"
C        1.79762508       1.79762508      -1.79762508
C        1.38066057       3.10662957      -2.04420434
C        2.16580590       3.94961078      -2.83310622
C        3.38238038       3.50483492      -3.37250161
C        3.77913841       2.17990626      -3.10950992
C        2.97977210       1.29878781      -2.36628654
N        3.49293406       0.03234067      -2.03224246
C        4.22738701       4.40146273      -4.17893885
C        4.62462111       5.65448411      -3.68757387
C        5.45408148       6.48911726      -4.43940578
C        5.88485742       6.08534057      -5.70391856
C        5.46089492       4.86544604      -6.25311324
C        4.67328468       4.01965007      -5.45858406
N        5.97616559       4.37267668      -7.46620297
H        0.45246373       3.48163381      -1.62238583
H        1.82152477       4.96502438      -3.02059154
H        4.74209484       1.83223277      -3.48026146
H        2.76971747      -0.61726661      -1.73167182
H        4.10949695      -0.36490714      -2.73345701
H        4.31380028       5.97807211      -2.69567367
H        5.76851346       7.44304343      -4.02444863
H        4.39346736       3.04248201      -5.84768355
H        5.36248465       3.71883735      -7.94139111
H        6.30659899       5.11452697      -8.07973130
C        6.75262060       6.96838714      -6.43932036
C        7.47937226       7.70793865      -7.05521937
Br       8.65446823       8.90373089      -8.05107598
C       -1.79762508      -1.79762508      -1.79762508
C       -3.01663839      -1.27840381      -2.23645227
C       -3.84508679      -2.04703555      -3.05640057
C       -3.46295022      -3.33478690      -3.46197979
C       -2.22912811      -3.83506909      -3.00435739
C       -1.40685486      -3.10256843      -2.13542316
N       -0.13157464      -3.60569338      -1.82024916
C       -4.32047722      -4.13536337      -4.35194801
C       -4.76996144      -3.61954013      -5.57717753
C       -5.55470056      -4.39230603      -6.43559793
C       -5.91407067      -5.69024385      -6.06980202
C       -5.53295388      -6.21938247      -4.82711785
C       -4.69982171      -5.44616208      -4.00553501
N       -5.76923229      -7.56306837      -4.48274459
H       -3.32703921      -0.27679826      -1.95264590
H       -4.79523844      -1.62859742      -3.38330482
H       -1.89473090      -4.81311131      -3.34674685
H        0.27607917      -3.15740794      -1.00279391
H       -0.08287895      -4.61831520      -1.77685267
H       -4.48394609      -2.61602848      -5.88757148
H       -5.86742883      -3.97814638      -7.39043030
H       -4.34304019      -5.87128849      -3.06930425
H       -5.80578759      -7.73388119      -3.48304432
H       -6.56749682      -7.95760513      -4.97575531
C       -6.71015902      -6.45919661      -6.99097247
C       -7.37688302      -7.10319454      -7.76245272
Br      -8.45491932      -8.14448474      -9.00987103
C       -1.79762508       1.79762508       1.79762508
C       -3.02616044       1.28639891       2.21893512
C       -3.85512226       2.05512190       3.03827875
C       -3.46422480       3.33480963       3.46068247
C       -2.22088168       3.82713709       3.02053583
C       -1.39723641       3.09509494       2.15251510
N       -0.11385291       3.58841762       1.85524666
C       -4.32265094       4.13506676       4.35007090
C       -4.78966206       3.61156723       5.56544980
C       -5.57526706       4.38359594       6.42374152
C       -5.91789027       5.68870587       6.06752040
C       -5.51892950       6.22638646       4.83413824
C       -4.68531383       5.45304425       4.01316073
N       -5.73823188       7.57577907       4.50103429
H       -3.34369450       0.29088140       1.92190747
H       -4.81268022       1.64306859       3.35139187
H       -1.88018285       4.79826364       3.37614256
H        0.29754217       3.14424318       1.03742166
H       -0.05457472       4.60087865       1.82259345
H       -4.51687471       2.60215138       5.86851996
H       -5.90178001       3.96307511       7.37115039
H       -4.31483050       5.88389834       3.08490408
H       -5.76295160       7.75696324       3.50279826
H       -6.53745231       7.97341594       4.98998900
C       -6.71551678       6.45640786       6.98840346
C       -7.38352898       7.09935827       7.75964303
Br      -8.46364821       8.13895471       9.00667217
C        1.79762508      -1.79762508       1.79762508
C        1.21366288      -2.90740949       2.41042211
C        1.98897647      -3.74713131       3.21241513
C        3.35747613      -3.50123079       3.40100998
C        3.92130984      -2.37463085       2.77261391
C        3.14992775      -1.48675803       2.00816067
N        3.79790359      -0.45586576       1.30374784
C        4.18409763      -4.40270016       4.22099082
C        4.21941764      -5.78205626       3.96520520
C        5.03012686      -6.63081217       4.72166548
C        5.80631488      -6.10990214       5.75789952
C        5.75258354      -4.74538512       6.08148554
C        4.97414481      -3.90344873       5.27392527
N        6.61418466      -4.16830499       7.03255559
H        0.16060380      -3.13099950       2.26488008
H        1.51520811      -4.60393150       3.68800107
H        4.99082793      -2.19456889       2.86919224
H        3.15796112       0.27514586       1.00130742
H        4.62130734      -0.08792720       1.76881228
H        3.63518157      -6.20342972       3.14893476
H        5.05912936      -7.69122993       4.48564623
H        4.97659157      -2.83353517       5.47350618
H        6.25752999      -3.31493343       7.45024968
H        6.93344807      -4.83957063       7.72783856
C        6.64091120      -7.01674228       6.50267462
C        7.33988562      -7.77622089       7.12642377
Br       8.47006813      -9.00423357       8.13497339
C       -0.00445707       0.01189536      -1.78238275
H       -0.66409135       0.67374010      -2.43557963
H        0.65740317      -0.63156657      -2.45157240
C       -0.90989263      -0.90692880      -0.91072765
C        0.90977584       0.90977584      -0.90977584
C       -0.00465871       1.77757030       0.00794375
H       -0.66225468       2.44313916      -0.64384735
H        0.64322798       2.43503045       0.67728295
C       -1.78241447       0.00034974      -0.00472694
H       -2.45427497      -0.65498947       0.64260836
H       -2.43311707       0.67328779      -0.65473579
C       -0.91132561       0.90220522       0.91563759
C       -0.01476271      -0.02253852       1.78660255
H       -0.67934791      -0.69751639       2.42135241
H        0.63392994       0.61504881       2.47327442
C        0.01484550      -1.77751727      -0.01636693
H        0.67870853      -2.42144646      -0.68295456
H       -0.62264859      -2.45592969       0.64226336
C        1.78714474       0.01002794       0.00389507
H        2.44202412       0.67113390       0.66197326
H        2.45385902      -0.65136977      -0.64189061
C        0.91606151      -0.90478549       0.90901405
