125
Properties=species:S:1:pos:R:3 pbc="F F F"
C        0.00000000       0.00000000       0.00000000
C        0.88787334       0.88787334      -0.88787334
C        0.60633265       2.25627585      -0.93971557
C        1.39157690       3.09819620      -1.72790100
C        2.46556585       2.57360555      -2.44731789
C        2.74319207       1.20293485      -2.39098445
C        1.93099852       0.33385342      -1.65057980
N        2.31649364      -1.01281881      -1.52063961
C        3.27218289       3.43265244      -3.25814339
C        3.92635381       4.14111003      -3.97403907
C        4.72921864       5.02538414      -4.92808544
C        5.33035039       5.70239438      -5.72105306
C        6.01387370       6.48606498      -6.70099081
C        5.68889295       7.83216065      -6.86989077
C        6.36210454       8.59383259      -7.82517464
C        7.34733622       8.00144657      -8.62089030
C        7.65067009       6.63411436      -8.50008572
C        7.00532953       5.90010325      -7.49667511
N        8.72106294       6.04253765      -9.19468934
H       -0.21617676       2.67507400      -0.36592509
H        1.16678217       4.16155737      -1.76706719
H        3.60009826       0.80803006      -2.93208943
H        1.55601860      -1.60969889      -1.20214274
H        2.79349718      -1.38955383      -2.33343257
H        4.92180866       8.29692850      -6.25468039
H        6.11597369       9.64606247      -7.93975571
H        7.27281196       4.85841134      -7.33578472
H        8.62817459       5.04073728      -9.32830581
H        8.94750343       6.53267980     -10.05744095
C        8.02154559       8.82629238      -9.58974070
C        8.58619593       9.51710075     -10.40115292
Br       9.49918779      10.63407946     -11.71313784
C       -0.88787334      -0.88787334      -0.88787334
C       -0.54809210      -1.01635108      -2.23788088
C       -1.32342488      -1.81757847      -3.07667075
C       -2.42449837      -2.50135632      -2.56063461
C       -2.75946173      -2.36957611      -1.20807353
C       -2.02669073      -1.52466372      -0.36407728
N       -2.31954887      -1.51661940       1.01185384
C       -3.22332931      -3.32242710      -3.41722231
C       -3.92276298      -3.97876404      -4.13997588
C       -4.84799178      -4.77179845      -5.06289799
C       -5.61051093      -5.35240534      -5.79088156
C       -6.54721576      -5.99919557      -6.65451816
C       -6.30846676      -6.05462795      -8.02784966
C       -7.22413596      -6.69087530      -8.86610051
C       -8.38519973      -7.25522325      -8.32925010
C       -8.66703781      -7.16270380      -6.95512856
C       -7.70864435      -6.57122214      -6.12224140
N       -9.75893657      -7.82900899      -6.37034437
H        0.32018212      -0.50277998      -2.64222447
H       -1.05658057      -1.91207536      -4.12675079
H       -3.60212124      -2.92942750      -0.80866901
H       -1.93340494      -0.70556098       1.49050348
H       -3.29916203      -1.66805624       1.22984235
H       -5.40770699      -5.61531372      -8.45039684
H       -7.02361160      -6.74544531      -9.93273495
H       -7.87004016      -6.54992525      -5.04704261
H      -10.07938467      -7.41873895      -5.49909406
H      -10.51801096      -7.99089719      -7.02871603
C       -9.29967722      -7.90791817      -9.22998329
C      -10.06555211      -8.45455016      -9.98434733
Br     -11.30390704      -9.33840786     -11.20409019
C       -0.88787334       0.88787334       0.88787334
C       -0.45964450       1.15006303       2.19261654
C       -1.23232733       1.95626125       3.02908552
C       -2.42053515       2.51189090       2.55406325
C       -2.84389935       2.24657252       1.24663950
C       -2.11037844       1.39335309       0.41170020
N       -2.50363938       1.25227690      -0.93160184
C       -3.21684682       3.33749405       3.40863785
C       -3.91105484       3.99597743       4.13447063
C       -4.82577298       4.78962872       5.06728652
C       -5.57617227       5.36855010       5.80907545
C       -6.49490903       6.01119715       6.69482332
C       -6.15945229       6.19511943       8.03637265
C       -7.05832648       6.82680829       8.89597700
C       -8.29806411       7.25756824       8.41404074
C       -8.67340999       7.03350008       7.07796010
C       -7.73528796       6.44993140       6.21688853
N       -9.85622480       7.56689318       6.53517195
H        0.47507619       0.73718096       2.56271756
H       -0.89626168       2.15498738       4.04415766
H       -3.75653191       2.70776715       0.87591869
H       -2.09007028       0.43632484      -1.37793267
H       -3.50582962       1.31196413      -1.08041783
H       -5.19708393       5.85994195       8.41639167
H       -6.78371394       6.98223146       9.93584647
H       -7.97433871       6.32981140       5.16285792
H      -10.20668471       7.06475838       5.72577459
H      -10.57456479       7.72427215       7.23878724
C       -9.19241328       7.91074319       9.33442220
C       -9.94143071       8.45777722      10.10524167
Br     -11.15252856       9.34228497      11.35159157
C        0.88787334      -0.88787334       0.88787334
C        1.83712810      -0.26306755       1.70212842
C        2.65843265      -1.03142830       2.52781315
C        2.51687800      -2.41910828       2.55050301
C        1.56427243      -3.03911298       1.73372597
C        0.77049020      -2.28858643       0.85635511
N       -0.25701675      -2.93546504       0.14586614
C        3.35794054      -3.21099685       3.39404133
C        4.08968978      -3.88424270       4.06757042
C        5.05171919      -4.75078598       4.88018304
C        5.83840859      -5.44174054       5.47364870
C        6.79841635      -6.26967688       6.13283627
C        7.83413670      -5.69051126       6.86629641
C        8.76636152      -6.50339877       7.51135148
C        8.66918303      -7.89418545       7.40630461
C        7.66301552      -8.49329864       6.62855601
C        6.70301145      -7.66287895       6.03621749
N        7.46443474      -9.88553930       6.60831589
H        1.93905584       0.81894594       1.70471242
H        3.39724212      -0.54083881       3.15732579
H        1.44144608      -4.11884042       1.77993125
H       -0.59669427      -2.38562851      -0.64047179
H       -0.04550712      -3.89421721      -0.11133417
H        7.91507636      -4.60908716       6.94925403
H        9.56062778      -6.04600613       8.09515796
H        5.87419303      -8.10469618       5.48811881
H        6.99319599     -10.22715950       5.77686219
H        8.31355142     -10.40596545       6.81810730
C        9.64879076      -8.69513858       8.09364933
C       10.46921224      -9.36593683       8.66930054
Br      11.79576438     -10.45056086       9.60007985
