146
Properties=species:S:1:pos:R:3 pbc="F F F"
C        1.79777736       1.79777736      -1.79777736
C        1.51623667       3.16617987      -1.84961960
C        2.30148093       4.00810022      -2.63780502
C        3.37546988       3.48350957      -3.35722192
C        3.65309610       2.11283887      -3.30088847
C        2.84090254       1.24375744      -2.56048382
N        3.22639767      -0.10291479      -2.43054363
C        4.18208691       4.34255647      -4.16804741
C        4.83625783       5.05101405      -4.88394310
C        5.63912266       5.93528816      -5.83798946
C        6.24025442       6.61229840      -6.63095708
C        6.92377773       7.39596901      -7.61089484
C        6.59879698       8.74206468      -7.77979479
C        7.27200856       9.50373662      -8.73507867
C        8.25724024       8.91135059      -9.53079432
C        8.56057412       7.54401839      -9.40998974
C        7.91523355       6.81000728      -8.40657914
N        9.63096697       6.95244167     -10.10459337
H        0.69372726       3.58497802      -1.27582912
H        2.07668619       5.07146139      -2.67697122
H        4.51000228       1.71793409      -3.84199346
H        2.46592262      -0.69979487      -2.11204677
H        3.70340120      -0.47964981      -3.24333659
H        5.83171268       9.20683252      -7.16458441
H        7.02587772      10.55596649      -8.84965973
H        8.18271599       5.76831537      -8.24568874
H        9.53807861       5.95064130     -10.23820984
H        9.85740746       7.44258382     -10.96734497
C        8.93144961       9.73619641     -10.49964473
C        9.49609996      10.42700478     -11.31105694
Br      10.40909181      11.54398349     -12.62304187
C       -1.79777736      -1.79777736      -1.79777736
C       -3.09596419      -2.07613637      -1.35993558
C       -3.93652105      -2.87225306      -2.13861206
C       -3.48384911      -3.37276239      -3.35958986
C       -2.18343606      -3.09015425      -3.79323313
C       -1.30651569      -2.34046843      -2.99815969
N       -0.05393905      -1.97564550      -3.52444196
C       -4.34145141      -4.19089865      -4.16034073
C       -5.04134603      -4.91335065      -4.81651830
C       -5.90555767      -5.87619352      -5.63064909
C       -6.55759485      -6.67646045      -6.24945460
C       -7.30298041      -7.66526862      -6.96239254
C       -8.55871499      -8.06082700      -6.50111446
C       -9.28407517      -9.02358845      -7.20316023
C       -8.74290393      -9.60043353      -8.35604769
C       -7.45733386      -9.25179637      -8.80545202
C       -6.76900056      -8.24222104      -8.12059836
N       -6.94140940      -9.71893830     -10.02765430
H       -3.46219496      -1.67279908      -0.41954035
H       -4.94460960      -3.08820212      -1.79230708
H       -1.84954821      -3.46051154      -4.75987008
H        0.60027919      -1.67238477      -2.80606893
H        0.34908177      -2.66225196      -4.15391780
H       -8.98301305      -7.61644867      -5.60366790
H      -10.26893318      -9.31468073      -6.84789003
H       -5.80320684      -7.90449145      -8.48902180
H       -5.92776086      -9.72052718     -10.07864171
H       -7.34850473     -10.60759397     -10.31123756
C       -9.52879131     -10.58529742      -9.05320202
C      -10.18697199     -11.41012093      -9.63706876
Br     -11.25119447     -12.74379078     -10.58113191
C       -1.79777736       1.79777736       1.79777736
C       -1.37382454       2.05289580       3.10531581
C       -2.14663175       2.85883360       3.94192082
C       -3.33061320       3.42124944       3.46433873
C       -3.74970324       3.16299339       2.15412681
C       -3.01625511       2.31018911       1.31869958
N       -3.40458951       2.17619621      -0.02675921
C       -4.12704386       4.24661474       4.31903218
C       -4.82152678       4.90496990       5.04471830
C       -5.73681214       5.69854948       5.97703867
C       -6.48787478       6.27750879       6.71812633
C       -7.40760133       6.92029483       7.60274541
C       -7.07688846       7.09737669       8.94639129
C       -7.97669048       7.72922998       9.80490339
C       -9.21268128       8.16701714       9.31968674
C       -9.58346855       7.94993095       7.98118275
C       -8.64421732       7.36604248       7.12156017
N      -10.76187048       8.49036461       7.43576692
H       -0.44231529       1.63468947       3.47752964
H       -1.81391423       3.05204658       4.95915798
H       -4.65892538       3.62942365       1.78158080
H       -2.99252562       1.36038432      -0.47473542
H       -4.40591117       2.24058810      -0.17941128
H       -6.11745602       6.75672016       9.32895344
H       -7.70570288       7.87929107      10.84651000
H       -8.87944197       7.25119619       6.06608194
H      -11.11105933       7.99296902       6.62290140
H      -11.48243547       8.64781290       8.13708788
C      -10.10811943       8.82009006      10.23908125
C      -10.85804888       9.36703863      11.00907416
Br     -12.07062138      10.25140822      12.25408757
C        1.79777736      -1.79777736       1.79777736
C        2.07603623      -1.35999441       3.09600550
C        2.87214935      -2.13867345       3.93656337
C        3.37275522      -3.35959627       3.48384987
C        3.09024711      -3.79318083       2.18339551
C        2.34056601      -2.99810004       1.30647775
N        1.97584569      -3.52433110       0.05384972
C        4.19088820      -4.16034942       4.34145317
C        4.91333768      -4.81652569       5.04135161
C        5.87617766      -5.63065079       5.90557184
C        6.67644268      -6.24944774       6.55761948
C        7.66524898      -6.96237164       7.30302095
C        8.06070830      -6.50114318       8.55880496
C        9.02346841      -7.20317526       9.28418018
C        9.60041121      -8.35599823       8.74297572
C        9.25187413      -8.80534851       7.45735961
C        8.24229901      -8.12051338       6.76900758
N        9.71911633     -10.02749408       6.94139160
H        1.67262357      -0.41964358       3.46226725
H        3.08802028      -1.79241418       4.94468434
H        3.46067942      -4.75977714       1.84947326
H        1.67258126      -2.80593783      -0.60034457
H        2.66251171      -4.15374408      -0.34916780
H        7.61625374      -5.60374674       8.98312915
H        9.31448339      -6.84794508      10.26907547
H        7.90464638      -8.48890058       5.80317313
H        9.72076661     -10.07842292       5.92774022
H       10.60776487     -10.31104955       7.34852183
C       10.58526998      -9.05314108       9.52887969
C       11.41008920      -9.63699821      10.18707427
Br      12.74375212     -10.58104582      11.25131923
C       -0.00445707       0.01189536      -1.78238275
H       -0.66409135       0.67374010      -2.43557963
H        0.65740317      -0.63156657      -2.45157240
C       -0.90989263      -0.90692880      -0.91072765
C        0.90977584       0.90977584      -0.90977584
C       -0.00465871       1.77757030       0.00794375
H       -0.66225468       2.44313916      -0.64384735
H        0.64322798       2.43503045       0.67728295
C       -1.78241447       0.00034974      -0.00472694
H       -2.45427497      -0.65498947       0.64260836
H       -2.43311707       0.67328779      -0.65473579
C       -0.91132561       0.90220522       0.91563759
C       -0.01476271      -0.02253852       1.78660255
H       -0.67934791      -0.69751639       2.42135241
H        0.63392994       0.61504881       2.47327442
C        0.01484550      -1.77751727      -0.01636693
H        0.67870853      -2.42144646      -0.68295456
H       -0.62264859      -2.45592969       0.64226336
C        1.78714474       0.01002794       0.00389507
H        2.44202412       0.67113390       0.66197326
H        2.45385902      -0.65136977      -0.64189061
C        0.91606151      -0.90478549       0.90901405
