122
Properties=species:S:1:pos:R:3 pbc="F F F"
C        1.79183847       1.79183847      -1.79183847
C        1.24852849       2.91343774      -2.40661810
C        2.05234304       3.69632851      -3.23507970
C        3.40965919       3.38061927      -3.44413094
C        3.96687158       2.27258058      -2.76417945
C        3.13304222       1.45969094      -1.98200163
N        5.28100987       1.83219780      -3.01893553
C        4.20456553       4.22508513      -4.35950544
C        4.53090345       3.72428015      -5.63537527
C        5.25165473       4.49230690      -6.54957453
C        5.63834478       5.78137070      -6.20238685
C        5.32867080       6.29909790      -4.94489951
C        4.65724247       5.51612391      -3.99410603
N        4.26660655       6.12183739      -2.78394618
Br       6.57919010       6.84564507      -7.44966224
H        0.20424097       3.17759500      -2.26610261
H        1.61713220       4.56180216      -3.73356459
H        3.53523299       0.56180609      -1.51958459
H        5.68652300       1.28152590      -2.26884793
H        5.90190204       2.57625007      -3.32801849
H        4.20989211       2.72329437      -5.91947329
H        5.48651119       4.08256071      -7.52827270
H        5.61024457       7.31953906      -4.69965160
H        4.05916900       5.45235780      -2.04736169
H        4.89041662       6.85752680      -2.46907228
C       -1.79183847      -1.79183847      -1.79183847
C       -2.95579564      -1.26978247      -2.34300622
C       -3.77172690      -2.09017579      -3.12184856
C       -3.42670225      -3.43278231      -3.37492485
C       -2.20877983      -3.93485819      -2.85999360
C       -1.42818423      -3.11723306      -2.02931751
N       -1.86167732      -5.29580185      -2.97466403
C       -4.34607696      -4.26527576      -4.17780338
C       -5.13016726      -5.23633728      -3.52405433
C       -6.03690676      -6.02669064      -4.22993875
C       -6.18286366      -5.83980243      -5.59943624
C       -5.41702009      -4.88606945      -6.26957867
C       -4.45840375      -4.12650883      -5.58255984
N       -3.79406945      -3.09859935      -6.27972132
Br      -7.43918254      -6.87701018      -6.55830469
H       -3.24779029      -0.23946296      -2.16068534
H       -4.69509068      -1.68401256      -3.53339572
H       -0.53123030      -3.51989093      -1.56550245
H       -0.86661269      -5.47833145      -2.89195270
H       -2.26845512      -5.74745936      -3.79025612
H       -5.03518024      -5.36993014      -2.44754938
H       -6.63180088      -6.76564681      -3.69989691
H       -5.56492453      -4.72982931      -7.33468137
H       -2.93490810      -2.79598493      -5.82799547
H       -3.66204954      -3.28701776      -7.26794839
C       -1.79183847       1.79183847       1.79183847
C       -1.28246638       2.97660959       2.30950838
C       -2.08365882       3.76103274       3.13905967
C       -3.40600521       3.38276175       3.44564245
C       -3.93368819       2.20685990       2.86308352
C       -3.09820857       1.39696556       2.07956067
N       -5.20304244       1.70946165       3.21963911
C       -4.19710538       4.23421122       4.35783950
C       -4.42117747       3.79251214       5.67686926
C       -5.13389961       4.57186092       6.58777563
C       -5.61524158       5.81436540       6.19249535
C       -5.40775251       6.27308782       4.89182788
C       -4.74535139       5.47390759       3.94821344
N       -4.45974098       6.02766590       2.68498324
Br      -6.54624903       6.89641248       7.43183589
H       -0.26520700       3.29003557       2.09269602
H       -1.67333966       4.67757675       3.56158255
H       -3.47167434       0.45210818       1.69284116
H       -5.61653575       1.09340218       2.52695891
H       -5.84870696       2.43459968       3.52286396
H       -4.02592396       2.82970260       5.99703320
H       -5.28884288       4.20840574       7.60009599
H       -5.76267858       7.25980213       4.60695451
H       -4.25452102       5.32832622       1.97604125
H       -5.14276380       6.70727839       2.36697351
C        1.79183847      -1.79183847       1.79183847
C        2.96911819      -1.27771178       2.32175438
C        3.78452401      -2.09856814       3.10065908
C        3.42597060      -3.43342877       3.37501004
C        2.19544285      -3.92644208       2.88174668
C        1.41467613      -3.10944902       2.05060964
N        1.83283008      -5.28134126       3.01797186
C        4.34495656      -4.26739265       4.17680689
C        5.10850255      -5.25640329       3.52565303
C        6.01415404      -6.04928658       4.23009554
C        6.17976573      -5.84715193       5.59518467
C        5.43445449      -4.87549315       6.26272058
C        4.47678821      -4.11250494       5.57817925
N        3.83423979      -3.06762891       6.27052142
Br       7.43505796      -6.88811369       6.55132576
H        3.27164110      -0.25353249       2.12276501
H        4.71803139      -1.69901520       3.49545237
H        0.50695642      -3.50648513       1.60318213
H        0.83459335      -5.45227633       2.95002716
H        2.24422325      -5.72787986       3.83406749
H        4.99822905      -5.40223285       2.45219786
H        6.59300249      -6.80228612       3.70205599
H        5.59777583      -4.70783253       7.32382686
H        2.97327847      -2.75983178       5.82577824
H        3.71239808      -3.24198902       7.26262860
C       -0.00445707       0.01189536      -1.78238275
H       -0.66409135       0.67374010      -2.43557963
H        0.65740317      -0.63156657      -2.45157240
C       -0.90989263      -0.90692880      -0.91072765
C        0.90977584       0.90977584      -0.90977584
C       -0.00465871       1.77757030       0.00794375
H       -0.66225468       2.44313916      -0.64384735
H        0.64322798       2.43503045       0.67728295
C       -1.78241447       0.00034974      -0.00472694
H       -2.45427497      -0.65498947       0.64260836
H       -2.43311707       0.67328779      -0.65473579
C       -0.91132561       0.90220522       0.91563759
C       -0.01476271      -0.02253852       1.78660255
H       -0.67934791      -0.69751639       2.42135241
H        0.63392994       0.61504881       2.47327442
C        0.01484550      -1.77751727      -0.01636693
H        0.67870853      -2.42144646      -0.68295456
H       -0.62264859      -2.45592969       0.64226336
C        1.78714474       0.01002794       0.00389507
H        2.44202412       0.67113390       0.66197326
H        2.45385902      -0.65136977      -0.64189061
C        0.91606151      -0.90478549       0.90901405
