101
Properties=species:S:1:pos:R:3 pbc="F F F"
C        0.00000000       0.00000000       0.00000000
C        0.88193445       0.88193445      -0.88193445
C        0.33862447       2.00353372      -1.49671408
C        1.14243901       2.78642448      -2.32517567
C        2.49975517       2.47071525      -2.53422692
C        3.05696755       1.36267656      -1.85427543
C        2.22313820       0.54978692      -1.07209761
N        4.37110584       0.92229378      -2.10903150
C        3.29466150       3.31518111      -3.44960142
C        3.62099942       2.81437613      -4.72547125
C        4.34175070       3.58240287      -5.63967051
C        4.72844075       4.87146668      -5.29248282
C        4.41876678       5.38919388      -4.03499549
C        3.74733845       4.60621988      -3.08420201
N        3.35670253       5.21193336      -1.87404216
Br       5.66928607       5.93574105      -6.53975821
H       -0.70566305       2.26769098      -1.35619859
H        0.70722818       3.65189813      -2.82366057
H        2.62532896      -0.34809793      -0.60968057
H        4.77661898       0.37162188      -1.35894391
H        4.99199802       1.66634604      -2.41811447
H        3.29998809       1.81339035      -5.00956926
H        4.57660717       3.17265668      -6.61836867
H        4.70034054       6.40963503      -3.78974757
H        3.14926497       4.54245378      -1.13745767
H        3.98051259       5.94762278      -1.55916825
C       -0.88193445      -0.88193445      -0.88193445
C       -2.04737758      -0.36073082      -1.43076386
C       -2.86325119      -1.18117552      -2.20961246
C       -2.51671795      -2.52295002      -2.46502936
C       -1.29738764      -3.02404847      -1.95248343
C       -0.51677386      -2.20649281      -1.12175606
N       -0.94855909      -4.38434898      -2.06952306
C       -3.43605141      -3.35560506      -3.26778756
C       -4.21788747      -4.32865861      -2.61430072
C       -5.12450954      -5.11929052      -3.32002403
C       -5.27262544      -4.93070751      -4.68905730
C       -4.50903481      -3.97498508      -5.35893625
C       -3.55051950      -3.21504772      -4.67219311
N       -2.88857822      -2.18525235      -5.36884748
Br      -6.52883520      -5.96832785      -5.64762229
H       -2.34054638       0.66892891      -1.24660905
H       -3.78774707      -0.77572406      -2.61931575
H        0.38137989      -2.60854799      -0.65974351
H        0.04687133      -4.56561209      -1.98844401
H       -1.35584197      -4.83543992      -2.88517664
H       -4.12122176      -4.46361110      -1.53811483
H       -5.71764308      -5.85980521      -2.79018425
H       -4.65863340      -3.81747458      -6.42361517
H       -2.02921103      -1.88207228      -4.91789311
H       -2.75766874      -2.37211784      -6.35751704
C       -0.88193445       0.88193445       0.88193445
C       -0.37574816       2.07153702       1.39158709
C       -1.17672728       2.85609500       2.22121688
C       -2.49580394       2.47304617       2.53584722
C       -3.02064896       1.29191861       1.96135197
C       -2.18504547       0.48227003       1.17770723
N       -4.28593406       0.79023217       2.32626490
C       -3.28661881       3.32506843       3.44775678
C       -3.50236751       2.88857561       4.76990368
C       -4.21447036       3.66886252       5.68049121
C       -4.70355770       4.90719377       5.28163879
C       -4.50438571       5.36071836       3.97785207
C       -3.84266308       4.56020791       3.03488935
N       -3.56564542       5.10931240       1.76772023
Br      -5.63382630       5.99069933       6.52025971
H        0.63897937       2.38872828       1.16847761
H       -0.76876898       3.77655796       2.63745994
H       -2.55584801      -0.46616201       0.79722560
H       -4.69976589       0.16895120       1.63846767
H       -4.93359127       1.51374486       2.62912240
H       -3.10104724       1.92917067       5.09272978
H       -4.36291004       3.30948389       6.69523860
H       -4.86532625       6.34438515       3.69001175
H       -3.36045972       4.40759555       1.06112115
H       -4.25337572       5.78417892       1.44974899
C        0.88193445      -0.88193445       0.88193445
C        2.06270572      -0.36999629       1.40617026
C        2.87797054      -1.19097492       2.18509370
C        2.51587022      -2.52369544       2.46513167
C        1.28204552      -3.01421858       1.97765544
C        0.50123084      -2.19739473       1.14639716
N        0.91535429      -4.36742667       2.11965017
C        3.43474707      -3.35805301       3.26664395
C        4.19278051      -4.35180213       2.61626416
C        5.09813335      -5.14536099       3.32032975
C        5.26901072      -4.93921073       4.68416881
C        4.52920875      -3.96281969       5.35092770
C        3.57180845      -3.19891399       4.66703791
N        2.93509692      -2.14956893       5.35801220
Br       6.52401531      -5.98117744       5.63959258
H        2.36798839       0.65248735       1.20272547
H        3.81413390      -0.79324237       2.57541061
H       -0.40931370      -2.59287357       0.70335173
H       -0.08367250      -4.53523091       2.05562635
H        1.32799050      -4.81260861       2.93585942
H        4.07841003      -4.50085667       1.54368100
H        5.67267623      -5.90206803       2.79288827
H        4.69665812      -3.79215410       6.41091093
H        2.07368135      -1.84037072       4.91512435
H        2.81600824      -2.32019258       6.35110281
