125
Properties=species:S:1:pos:R:3 pbc="F F F"
C        0.00000000       0.00000000       0.00000000
C        0.88221746       0.88221746      -0.88221746
C        0.61867938       2.24549531      -0.97587248
C        1.43988215       3.05039674      -1.76561722
C        2.51128240       2.48854902      -2.47312772
C        2.74882827       1.09947683      -2.42243768
C        1.95000428       0.31473799      -1.57952037
N        3.88711648       0.51368958      -3.00879055
C        3.32441793       3.35372599      -3.27899932
C        3.98849812       4.05625521      -3.99082309
C        4.81348714       4.91915023      -4.94917502
C        5.43711692       5.56510085      -5.74759518
C        6.15459943       6.31054544      -6.74092253
C        5.82975799       7.66209755      -6.92057816
C        6.49530781       8.42447055      -7.88053202
C        7.49689661       7.83674236      -8.64733222
C        7.83072608       6.49272577      -8.47197321
C        7.13234427       5.69853704      -7.55209446
N        7.58232939       4.38485139      -7.31870445
H       -0.20921746       2.69160486      -0.43139347
H        1.24354609       4.11882864      -1.82295302
H        2.16225901      -0.74536648      -1.46944141
H        3.78791095      -0.47669051      -3.20739290
H        4.24864553       1.03140534      -3.80494322
H        5.05979885       8.12787511      -6.30935708
H        6.23517725       9.47143015      -8.01127092
H        8.63787845       6.05802830      -9.05552239
H        6.88996766       3.78894087      -6.87363251
H        8.00751135       3.94249370      -8.12726394
C        8.20146366       8.62521573      -9.62482647
C        8.79153856       9.28556218     -10.44347791
Br       9.74563977      10.35328654     -11.76716804
C       -0.88221746      -0.88221746      -0.88221746
C       -1.62530762      -0.30637665      -1.90836289
C       -2.41256799      -1.11869606      -2.72463207
C       -2.46883823      -2.50135680      -2.50276410
C       -1.75884702      -3.08086180      -1.43103395
C       -0.92836205      -2.25900181      -0.65689878
N       -1.68195987      -4.47541258      -1.25222416
C       -3.29818234      -3.29644828      -3.36251262
C       -4.01968357      -3.97008204      -4.04581081
C       -4.97512313      -4.84167295      -4.86501632
C       -5.75793696      -5.53422179      -5.45765419
C       -6.72350547      -6.36255025      -6.12001167
C       -7.55270123      -5.77467020      -7.08506227
C       -8.51188964      -6.53932872      -7.74909202
C       -8.62774836      -7.89521689      -7.45800593
C       -7.80290037      -8.49047975      -6.50204495
C       -6.87370365      -7.72411309      -5.78515902
N       -5.97898055      -8.38507168      -4.92183301
H       -1.58888751       0.76450361      -2.08939697
H       -2.97827460      -0.66920683      -3.53784633
H       -0.31654994      -2.69699938       0.12721539
H       -1.45358516      -4.75992373      -0.30510445
H       -2.48269111      -4.97945737      -1.62284560
H       -7.45104163      -4.71897148      -7.32701794
H       -9.14943651      -6.07303361      -8.49540820
H       -7.88361473      -9.55717374      -6.31064067
H       -5.53978199      -7.77162408      -4.24113498
H       -6.35839842      -9.22406828      -4.49480228
C       -9.60201075      -8.69334015      -8.15615496
C      -10.41795549      -9.36176839      -8.74085477
Br     -11.73726914     -10.44256031      -9.68626490
C       -0.88221746       0.88221746       0.88221746
C       -0.32936048       1.98599636       1.52469032
C       -1.14342607       2.80065977       2.31181027
C       -2.50338675       2.50069448       2.46887791
C       -3.05502503       1.35338666       1.86233108
C       -2.23670931       0.57852249       1.02903084
N       -4.43751029       1.08715345       1.88493288
C       -3.30053854       3.36237147       3.29423322
C       -3.97192922       4.04867153       4.01497568
C       -4.83519087       4.87339893       4.97322259
C       -5.51601065       5.47214674       5.76165556
C       -6.32561324       6.14384733       6.73660682
C       -5.75174599       7.19294815       7.46773956
C       -6.49840766       7.86970927       8.43219345
C       -7.82374756       7.50616944       8.65105418
C       -8.40528709       6.46595909       7.92417889
C       -7.65177867       5.73854859       6.99264851
N       -8.30881447       4.78226476       6.19480601
H        0.72378206       2.22793700       1.40962593
H       -0.71350909       3.67351667       2.79830199
H       -2.65977704      -0.26758596       0.49414286
H       -4.67444531       0.11215944       1.73200859
H       -4.91538004       1.47711584       2.69249821
H       -4.72148784       7.49053134       7.28501187
H       -6.04321483       8.68148581       8.99317769
H       -9.45095763       6.21674930       8.08372221
H       -7.68069917       4.11288374       5.75895813
H       -9.09487027       4.33087446       6.65152425
C       -8.60501303       8.21587991       9.63061291
C       -9.25932287       8.81026243      10.45099335
Br     -10.31728652       9.77132869      11.77747914
C        0.88221746      -0.88221746       0.88221746
C        0.98245463      -0.61356446       2.24402807
C        1.77213387      -1.43470558       3.04905665
C        2.47303628      -2.51121958       2.48870328
C        2.41576376      -2.75415882       1.10082019
C        1.57290421      -1.95509946       0.31625897
N        2.99514380      -3.89716560       0.51728722
C        3.27911874      -3.32411579       3.35390870
C        3.99109745      -3.98823425       4.05624473
C        4.94960069      -4.81361046       4.91860124
C        5.74810840      -5.43785805       5.56384651
C        6.74154448      -6.15634484       6.30817808
C        6.92798062      -5.82678505       7.65766803
C        7.88832177      -6.49313658       8.41885203
C        8.64868967      -7.50018474       7.83209677
C        8.46654434      -7.83871943       6.49016129
C        7.54628123      -7.13982706       5.69686749
N        7.30576019      -7.59415816       4.38596689
H        0.44313024       0.21832308       2.68897371
H        1.83458736      -1.23429562       4.11644477
H        1.45767795      -2.17118065      -0.74252466
H        3.19013236      -3.80276044      -0.47427946
H        3.79192186      -4.25982476       1.03324746
H        6.32176121      -5.05248466       8.12278517
H        8.02434751      -6.22931702       9.46421379
H        9.04506815      -8.64997503       6.05638596
H        6.86107479      -6.90240885       3.78905741
H        8.11080020      -8.02439169       3.94207710
C        9.62651926      -8.20551862       8.61946798
C       10.44545153      -8.79623575       9.27889136
Br      11.76959576      -9.75137538      10.34512321
