186
Properties=species:S:1:pos:R:3 pbc="F F F"
C        6.26097378      -8.64365095      -2.74605427
C        7.28810295      -7.78932724      -2.00856348
C        7.35184472      -8.08317866      -0.50811278
H        6.36073455      -8.08887344      -0.04593484
S        8.47242300      -6.93906376       0.37849062
C        7.60987216      -5.39067653       0.20642373
C        6.27885722      -5.22906558       0.58750842
C        5.64430318      -3.98866967       0.43562328
C        6.32439959      -2.86815881      -0.07609683
C        7.67148693      -3.04869922      -0.43180948
C        8.30484829      -4.29009710      -0.29484224
C        5.64506992      -1.56144311      -0.24419407
C        5.96403876      -0.70089062      -1.30843216
C        5.29009529       0.51103593      -1.49737362
C        4.23672212       0.87391343      -0.66075223
C        3.95305305       0.07193407       0.44292473
C        4.64600450      -1.12877462       0.64526430
S        3.34629854       2.37895697      -0.97119005
C        1.82768494       1.82768494      -1.82768494
H        1.22436043       2.73995716      -1.90145431
C        1.93119474       1.27272307      -3.25142921
C        2.64616900      -0.05471452      -3.45731750
Br       8.07065489      -9.88787300      -0.20715296
H        6.16373039      -8.29990639      -3.78106189
H        5.27635232      -8.57304213      -2.27291115
H        6.55571186      -9.69654281      -2.77791548
H        7.00181543      -6.74339511      -2.17080994
H        8.26842571      -7.92726268      -2.48114754
H        5.71568538      -6.05281940       1.01742121
H        4.59640801      -3.91465825       0.72053348
H        8.26024650      -2.21707874      -0.81274646
H        9.34967186      -4.38242364      -0.58460493
H        6.73100418      -0.97128825      -2.03098340
H        5.57309392       1.14605091      -2.33390114
H        3.18870628       0.36281525       1.15717523
H        4.38868063      -1.72315684       1.51960528
H        2.40520525       2.02334575      -3.89713669
H        0.91128133       1.15233193      -3.64155499
H        3.72334094       0.09078940      -3.54874491
H        2.32175528      -0.50628873      -4.40127996
H        2.44622322      -0.77540376      -2.66087994
C       -6.43335870       8.58669621      -2.51671461
C       -7.43586561       7.70549620      -1.77696978
C       -7.48089042       7.97547594      -0.27136436
H       -6.48296247       7.98944601       0.17572050
S       -8.57011477       6.80084207       0.61440409
C       -7.68687638       5.26875526       0.40534922
C       -6.34783146       5.12194113       0.76360711
C       -5.69690846       3.89394554       0.58295271
C       -6.36770705       2.77097752       0.06439192
C       -7.72271666       2.93608262      -0.26796314
C       -8.37269286       4.16532524      -0.10222581
C       -5.67126074       1.47761571      -0.13417585
C       -5.99350222       0.62852423      -1.20660230
C       -5.30420425      -0.56983688      -1.42446370
C       -4.23264045      -0.92908542      -0.60966191
C       -3.94419064      -0.13969820       0.50182646
C       -4.65211463       1.04695039       0.73319866
S       -3.32433181      -2.41530400      -0.95680975
C       -1.82768494      -1.82768494      -1.82768494
H       -1.21176782      -2.72930414      -1.92469993
C       -1.96159632      -1.25280009      -3.24095061
C       -2.69976927       0.06641574      -3.41541845
Br      -8.22232930       9.76406921       0.06832524
H       -6.34689376       8.26027411      -3.55826625
H       -5.44058820       8.52411365      -2.05974679
H       -6.74453157       9.63527378      -2.52782675
H       -7.13624468       6.66669815      -1.95968374
H       -8.42535367       7.83544746      -2.23240436
H       -5.79068031       5.94766030       1.19757525
H       -4.64373417       3.83180085       0.85071704
H       -8.30457358       2.10135869      -0.65269933
H       -9.42314975       4.24590196      -0.37460537
H       -6.77555762       0.89800274      -1.91314445
H       -5.59039744      -1.19635131      -2.26629723
H       -3.16456996      -0.42956966       1.19979333
H       -4.39038831       1.63187007       1.61259973
H       -2.43405165      -2.00074669      -3.89088935
H       -0.94977788      -1.11075428      -3.64463608
H       -3.77588728      -0.09429788      -3.49269009
H       -2.39687631       0.53724909      -4.35711928
H       -2.49853142       0.77791142      -2.61107940
C        6.49176134       8.71027126      -1.85513282
C        6.68595461       8.54397025      -0.35067646
C        7.84969968       7.61759232       0.00888620
H        7.81300562       6.67472946      -0.54392789
S        7.96232737       7.30773640       1.80945958
C        6.47181036       6.37931724       2.10526502
C        6.15336612       5.22681117       1.38883817
C        4.96928794       4.52815585       1.66114231
C        4.08188777       4.94292385       2.67130153
C        4.43487571       6.09373008       3.39574282
C        5.60997920       6.80254822       3.11702442
C        2.82586646       4.20589344       2.94779390
C        1.65895369       4.87356393       3.35697006
C        0.45892174       4.18608194       3.57134463
C        0.37352435       2.81687875       3.32803339
C        1.53518221       2.12382081       2.99342379
C        2.74190713       2.80992453       2.80394817
S       -1.18167582       1.98354383       3.53122591
C       -1.82768494       1.82768494       1.82768494
H       -2.72020329       1.20187642       1.94369217
C       -2.28660961       3.08520829       1.08352911
C       -1.23696956       4.11637386       0.69542855
Br       9.55449538       8.45010788      -0.50567765
H        5.57138349       9.26935636      -2.05308697
H        6.40996447       7.73838413      -2.35219831
H        7.31587989       9.26540091      -2.31243648
H        5.74869770       8.13398775       0.04394022
H        6.81439384       9.53510167       0.10160273
H        6.81824945       4.84446695       0.61922727
H        4.74689135       3.64915383       1.05895381
H        3.80339613       6.45468771       4.20462265
H        5.84131716       7.68914792       3.70402240
H        1.65489824       5.95291397       3.49268360
H       -0.41826276       4.74471979       3.89006343
H        1.52041860       1.04519488       2.86957002
H        3.62234968       2.22700458       2.54126361
H       -3.06359190       3.58922150       1.67287429
H       -2.78229421       2.76651707       0.15635696
H       -1.03997119       4.80370703       1.51919703
H       -1.61225614       4.73309951      -0.12860914
H       -0.29649570       3.66626751       0.36893620
C       -8.15176097      -7.31929350       1.19584457
C       -7.98998349      -6.85638351       2.64093916
C       -8.87144873      -5.65585215       2.99237542
H       -8.78955002      -4.85320265       2.25414332
S       -8.54336386      -5.02071122       4.67752126
C       -6.88577003      -4.39312248       4.50541945
C       -6.53122987      -3.47720198       3.51631111
C       -5.21326428      -3.00954200       3.42373250
C       -4.21755772      -3.42111730       4.32877803
C       -4.60331575      -4.32667122       5.33124172
C       -5.91578226      -4.80712577       5.41824993
C       -2.82284780      -2.93111048       4.21955820
C       -1.73003193      -3.74980269       4.55180953
C       -0.41097499      -3.30635427       4.40312555
C       -0.14232474      -2.05024765       3.86346487
C       -1.20983140      -1.19528663       3.59660716
C       -2.52979528      -1.63165605       3.77010481
S        1.54125047      -1.54394163       3.61125346
C        1.82768494      -1.82768494       1.82768494
H        2.81942223      -1.39533251       1.65101715
C        1.89211084      -3.26383075       1.29940543
C        0.62096782      -4.09992486       1.32787930
Br     -10.76486813      -6.18376700       2.97103598
H       -7.40607786      -8.08683596       0.96412780
H       -8.00960121      -6.48861657       0.49720599
H       -9.13792787      -7.75759284       1.01741956
H       -6.93359568      -6.59259179       2.77023416
H       -8.18985454      -7.70344950       3.30871560
H       -7.26751634      -3.10221941       2.81074171
H       -4.97439915      -2.31633576       2.61927968
H       -3.88708685      -4.66716149       6.07583958
H       -6.16779371      -5.50838127       6.21126560
H       -1.88509343      -4.76491810       4.91087466
H        0.40300326      -3.97439907       4.67564365
H       -1.03428090      -0.18280160       3.24582560
H       -3.33077901      -0.92982131       3.54687621
H        2.67672776      -3.81098112       1.83797881
H        2.22724317      -3.22399313       0.25393194
H        0.48693950      -4.57567272       2.30026304
H        0.69949007      -4.91603354       0.60122289
H       -0.27440124      -3.52414890       1.08195175
C       -0.00445707       0.01189536      -1.78238275
H       -0.66409135       0.67374010      -2.43557963
H        0.65740317      -0.63156657      -2.45157240
C       -0.90989263      -0.90692880      -0.91072765
C        0.90977584       0.90977584      -0.90977584
C       -0.00465871       1.77757030       0.00794375
H       -0.66225468       2.44313916      -0.64384735
H        0.64322798       2.43503045       0.67728295
C       -1.78241447       0.00034974      -0.00472694
H       -2.45427497      -0.65498947       0.64260836
H       -2.43311707       0.67328779      -0.65473579
C       -0.91132561       0.90220522       0.91563759
C       -0.01476271      -0.02253852       1.78660255
H       -0.67934791      -0.69751639       2.42135241
H        0.63392994       0.61504881       2.47327442
C        0.01484550      -1.77751727      -0.01636693
H        0.67870853      -2.42144646      -0.68295456
H       -0.62264859      -2.45592969       0.64226336
C        1.78714474       0.01002794       0.00389507
H        2.44202412       0.67113390       0.66197326
H        2.45385902      -0.65136977      -0.64189061
C        0.91606151      -0.90478549       0.90901405
