194
Properties=species:S:1:pos:R:3 pbc="F F F"
C        6.26097378      -8.64365095      -2.74605427
C        7.28810295      -7.78932724      -2.00856348
C        7.35184472      -8.08317866      -0.50811278
H        6.36073455      -8.08887344      -0.04593484
S        8.47242300      -6.93906376       0.37849062
C        7.60987216      -5.39067653       0.20642373
C        6.27885722      -5.22906558       0.58750842
C        5.64430318      -3.98866967       0.43562328
C        6.32439959      -2.86815881      -0.07609683
C        7.67148693      -3.04869922      -0.43180948
C        8.30484829      -4.29009710      -0.29484224
C        5.64506992      -1.56144311      -0.24419407
C        5.96403876      -0.70089062      -1.30843216
C        5.29009529       0.51103593      -1.49737362
C        4.23672212       0.87391343      -0.66075223
C        3.95305305       0.07193407       0.44292473
C        4.64600450      -1.12877462       0.64526430
S        3.34629854       2.37895697      -0.97119005
C        1.82768494       1.82768494      -1.82768494
H        1.22436043       2.73995716      -1.90145431
C        1.93119474       1.27272307      -3.25142921
C        2.64616900      -0.05471452      -3.45731750
H        6.16373039      -8.29990639      -3.78106189
H        5.27635232      -8.57304213      -2.27291115
H        6.55571186      -9.69654281      -2.77791548
H        7.00181543      -6.74339511      -2.17080994
H        8.26842571      -7.92726268      -2.48114754
H        5.71568538      -6.05281940       1.01742121
H        4.59640801      -3.91465825       0.72053348
H        8.26024650      -2.21707874      -0.81274646
H        9.34967186      -4.38242364      -0.58460493
H        6.73100418      -0.97128825      -2.03098340
H        5.57309392       1.14605091      -2.33390114
H        3.18870628       0.36281525       1.15717523
H        4.38868063      -1.72315684       1.51960528
H        2.40520525       2.02334575      -3.89713669
H        0.91128133       1.15233193      -3.64155499
H        3.72334094       0.09078940      -3.54874491
H        2.32175528      -0.50628873      -4.40127996
H        2.44622322      -0.77540376      -2.66087994
C        7.87840447      -9.40519587      -0.28764661
C        8.31939827     -10.51238528      -0.10300618
Br       9.03244793     -12.30261691       0.19554176
C       -6.12153011       8.68433337      -2.92618036
C       -7.16781616       7.85150836      -2.19103140
C       -7.24604558       8.16438660      -0.69511985
H       -6.26058117       8.16377455      -0.22098933
S       -8.39109865       7.04475793       0.19147210
C       -7.54548770       5.48410529       0.04861051
C       -6.22123199       5.31112691       0.44782186
C       -5.60007077       4.06141398       0.31864657
C       -6.28756821       2.94302165      -0.18779105
C       -7.62796881       3.13542986      -0.56205824
C       -8.24774553       4.38594829      -0.44779619
C       -5.62225152       1.62626135      -0.33183071
C       -5.93884545       0.75669799      -1.38943284
C       -5.27750678      -0.46547643      -1.55552162
C       -4.23879647      -0.83078958      -0.70180173
C       -3.95868683      -0.01888430       0.39550874
C       -4.63932897       1.19246639       0.57489700
S       -3.36312074      -2.35012858      -0.98319624
C       -1.82768494      -1.82768494      -1.82768494
H       -1.23468768      -2.74799326      -1.88309095
C       -1.90725338      -1.28892355      -3.25917009
C       -2.60344992       0.04442341      -3.48974546
H       -6.01602143       8.32684291      -3.95570738
H       -5.14361630       8.60764087      -2.44024592
H       -6.40299817       9.74023358      -2.97431995
H       -6.89237341       6.80030105      -2.33715790
H       -8.14061741       7.99547260      -2.67716576
H       -5.65327583       6.13321699       0.87461407
H       -4.55666575       3.97826091       0.61718856
H       -8.22219508       2.30638002      -0.94009915
H       -9.28779754       4.48731757      -0.75137320
H       -6.69369275       1.02748486      -2.12449144
H       -5.55812882      -1.10719139      -2.38772577
H       -3.20660762      -0.31022140       1.12248272
H       -4.38532921       1.79432519       1.44508552
H       -2.38256884      -2.04159985      -3.90151899
H       -0.88132018      -1.18559925      -3.63824881
H       -3.68113655      -0.08919377      -3.59254493
H       -2.26220048       0.48050779      -4.43505382
H       -2.40434040       0.77231185      -2.69967085
C       -7.75905925       9.49524396      -0.49703992
C       -8.18870819      10.60983700      -0.33114798
Br      -8.88341420      12.41203968      -0.06291474
C        6.97828594       8.45658254      -1.11491951
C        7.08987433       8.21025810       0.38695542
C        8.18953724       7.21162212       0.75469396
H        8.13585698       6.29879170       0.15486124
S        8.19836383       6.81216819       2.54106425
C        6.65300517       5.94562450       2.72015257
C        6.31644610       4.84526027       1.93346905
C        5.08878841       4.19391223       2.11488640
C        4.17307600       4.60400341       3.10141020
C        4.54362229       5.70058795       3.89763153
C        5.76312148       6.36282043       3.70989449
C        2.87162957       3.91772675       3.28172370
C        1.71865080       4.62222892       3.66800218
C        0.47846434       3.98554317       3.79142601
C        0.34083543       2.63520340       3.47701981
C        1.48369273       1.90212259       3.16363253
C        2.72926159       2.53593060       3.06529657
S       -1.26000450       1.87107731       3.56536375
C       -1.82768494       1.82768494       1.82768494
H       -2.75331189       1.24196724       1.87049276
C       -2.18958280       3.13997794       1.12578628
C       -1.07467737       4.13515353       0.83894106
H        6.09614998       9.06915164      -1.32811576
H        6.87548765       7.51439952      -1.66269052
H        7.84920649       8.99123068      -1.50493965
H        6.11600837       7.82895892       0.71627972
H        7.24232469       9.17144447       0.89319078
H        6.99980286       4.46718720       1.17806044
H        4.85528375       3.35629213       1.46020791
H        3.89064473       6.05382560       4.69273336
H        6.00665475       7.20829381       4.35021410
H        1.75870709       5.69287517       3.85653125
H       -0.38612501       4.57121148       4.09570948
H        1.42430942       0.83257021       2.98608552
H        3.59319017       1.92323819       2.81587049
H       -2.97014444       3.65345983       1.70208341
H       -2.65330858       2.89016132       0.16169834
H       -0.88648056       4.77237613       1.70401856
H       -1.37934918       4.80777071       0.02962661
H       -0.14145337       3.65500300       0.53524303
C        9.48279218       7.77610189       0.46754550
C       10.56589319       8.24885370       0.22705867
Br      12.31717593       9.01325339      -0.16178820
C       -4.72921012      -9.10833056      -4.01574334
C       -5.14915539      -9.20855890      -2.55206433
C       -6.48195367      -8.51657272      -2.25784021
H       -6.51944046      -7.50233710      -2.66510069
S       -6.88480488      -8.51189080      -0.47221731
C       -5.61283675      -7.44827324       0.17733541
C       -5.38551280      -6.16505782      -0.31726180
C       -4.37399126      -5.36402099       0.22998049
C       -3.57755103      -5.80838905       1.30149959
C       -3.84001942      -7.09588212       1.79873449
C       -4.84029449      -7.90463576       1.24525216
C       -2.50225582      -4.96072455       1.86935215
C       -1.31119546      -5.52010419       2.36267156
C       -0.27446198      -4.71872561       2.85424121
C       -0.37328679      -3.32951107       2.81516350
C       -1.57330176      -2.75631165       2.39905249
C       -2.62017255      -3.56116449       1.93097364
S        0.98945647      -2.33557854       3.37141055
C        1.82768494      -1.82768494       1.82768494
H        2.58662894      -1.11282977       2.16631318
C        2.57519782      -2.87861238       1.00153681
C        1.76316664      -3.96849229       0.31711304
H       -3.71413553      -9.49941135      -4.14038993
H       -4.73469396      -8.06835944      -4.35744412
H       -5.38611946      -9.69110556      -4.66790156
H       -4.35025246      -8.74258282      -1.96310009
H       -5.18020375     -10.26663112      -2.26411681
H       -5.99177399      -5.76008969      -1.12287093
H       -4.21308790      -4.37933086      -0.20502668
H       -3.27511804      -7.49063074       2.64040152
H       -5.00669156      -8.89558057       1.66296415
H       -1.15587205      -6.59673827       2.34983312
H        0.62828922      -5.19647506       3.22828170
H       -1.71170893      -1.67970137       2.42635386
H       -3.53752125      -3.06891542       1.61452434
H        3.33467350      -3.35906254       1.63195164
H        3.13558336      -2.35389463       0.21569024
H        1.56694528      -4.79709391       0.99883607
H        2.33891123      -4.39134828      -0.51351301
H        0.81662590      -3.60426255      -0.08918904
C       -7.55661244      -9.22306052      -2.90559287
C       -8.45663917      -9.81474406      -3.44808571
Br      -9.91190626     -10.77144629      -4.32525077
C       -0.00445707       0.01189536      -1.78238275
H       -0.66409135       0.67374010      -2.43557963
H        0.65740317      -0.63156657      -2.45157240
C       -0.90989263      -0.90692880      -0.91072765
C        0.90977584       0.90977584      -0.90977584
C       -0.00465871       1.77757030       0.00794375
H       -0.66225468       2.44313916      -0.64384735
H        0.64322798       2.43503045       0.67728295
C       -1.78241447       0.00034974      -0.00472694
H       -2.45427497      -0.65498947       0.64260836
H       -2.43311707       0.67328779      -0.65473579
C       -0.91132561       0.90220522       0.91563759
C       -0.01476271      -0.02253852       1.78660255
H       -0.67934791      -0.69751639       2.42135241
H        0.63392994       0.61504881       2.47327442
C        0.01484550      -1.77751727      -0.01636693
H        0.67870853      -2.42144646      -0.68295456
H       -0.62264859      -2.45592969       0.64226336
C        1.78714474       0.01002794       0.00389507
H        2.44202412       0.67113390       0.66197326
H        2.45385902      -0.65136977      -0.64189061
C        0.91606151      -0.90478549       0.90901405
