173
Properties=species:S:1:pos:R:3 pbc="F F F"
C        0.00000000       0.00000000       0.00000000
C        4.54049957       7.52246042      -4.39073289
C        4.85770880       6.13624092      -4.91241827
C        3.75337881       5.24749316      -5.55134703
H        4.37967884       4.37572159      -5.80999877
C        2.68576184       4.52189586      -4.63221213
H        2.14486249       3.78364574      -5.23674604
S        3.68648385       3.50211667      -3.37544892
C        2.50968720       2.50657084      -2.48861956
C        2.45964334       1.12236945      -2.69843946
C        1.64684214       0.31006243      -1.89653591
C        0.88099270       0.88099270      -0.88099270
C        0.93681923       2.25126821      -0.64666750
C        1.77130317       3.05089420      -1.43148475
C        1.68037567       5.40868432      -3.89019757
C        0.54356467       5.95915430      -4.73085792
S        3.34536549       5.57055521      -7.34840782
C        2.34749543       7.01306188      -7.63396793
C        1.67567727       7.04639363      -8.86759320
C        0.86924342       8.12550238      -9.24373385
C        0.73292835       9.20997031      -8.38990311
C        1.38777629       9.21148443      -7.16761520
C        2.19124241       8.12098646      -6.79558540
H        5.27823030       7.80808747      -3.63369091
H        3.56219055       7.59741870      -3.92234734
H        4.62593242       8.26445790      -5.18825203
H        5.30189257       5.58907945      -4.07180871
H        5.68663545       6.23436692      -5.62842525
H        3.07850671       0.65608409      -3.46015306
H        1.63635952      -0.76585572      -2.05655938
H        0.36054782       2.70429358       0.15432598
H        1.85589654       4.10686656      -1.18694116
H        2.18811163       6.21525233      -3.36028029
H        1.16452062       4.83537486      -3.11974083
H        0.12561889       6.85542757      -4.25680912
H       -0.26480881       5.22302402      -4.81612716
H        0.84106727       6.21015125      -5.73890983
H        1.77195863       6.20961474      -9.56163136
H        0.35911674       8.10403141     -10.20570078
H        1.29158614      10.05568698      -6.48673880
H        2.65177997       8.15913089      -5.82502762
C       -0.09689092      10.32539769      -8.76516534
C       -0.79186455      11.25956812      -9.07944747
Br      -1.91557814      12.77004270      -9.58761508
C       -7.24605516      -3.71318121      -5.49445651
C       -6.05439486      -4.61273245      -5.23924069
C       -5.68645382      -5.06724749      -3.79851769
H       -4.81699866      -5.70048086      -4.04791967
C       -4.98022723      -4.05760968      -2.80203292
H       -4.61035441      -4.61931345      -1.93558641
S       -3.42045841      -3.44206962      -3.70152143
C       -2.50031624      -2.49096633      -2.51359503
C       -1.29923944      -2.98903915      -1.99217367
C       -0.49025404      -2.18618001      -1.17700644
C       -0.88099270      -0.88099270      -0.88099270
C       -2.06032742      -0.36530760      -1.40911992
C       -2.84733236      -1.16201500      -2.24433476
C       -5.80212251      -2.85798943      -2.31914561
C       -6.83198041      -3.15605139      -1.24554510
S       -6.63290123      -6.52511098      -3.10631630
C       -8.28267587      -6.14762202      -2.56422734
C       -8.84901770      -7.07117517      -1.66947123
C      -10.14713808      -6.92027278      -1.17106880
C      -10.91613953      -5.83972382      -1.57693841
C      -10.38937026      -4.91334805      -2.46415762
C       -9.08269321      -5.06976093      -2.95536013
H       -7.10574581      -3.17602661      -6.43823626
H       -7.39690339      -2.96202107      -4.72303214
H       -8.15689863      -4.30399296      -5.61775077
H       -5.18766806      -4.10041393      -5.67469875
H       -6.17413120      -5.50634180      -5.86895462
H       -0.96077755      -3.99049550      -2.24347081
H        0.45083628      -2.57925536      -0.79864411
H       -2.36460023       0.65620037      -1.20211556
H       -3.72683248      -0.71840309      -2.70446869
H       -6.26570691      -2.33912903      -3.15880832
H       -5.15475460      -2.12046743      -1.84441427
H       -7.60948850      -2.38262534      -1.24574175
H       -6.36578485      -3.15562908      -0.25292844
H       -7.30563226      -4.11999027      -1.36450581
H       -8.26856874      -7.93468675      -1.33994923
H      -10.54178936      -7.65565636      -0.47140321
H      -10.98070642      -4.06029459      -2.79301091
H       -8.71223924      -4.30730817      -3.61639107
C      -12.25290786      -5.67240801      -1.06835624
C      -13.37245135      -5.53228102      -0.64241867
Br     -15.18265847      -5.30570753       0.04628636
C       -3.44553675       6.55042433       6.45773180
C       -4.46862394       5.67984454       5.75789951
C       -4.47081713       4.13628036       5.94512151
H       -5.34783004       3.90042904       5.31714012
C       -3.38959065       3.24398870       5.20629049
H       -3.68871948       2.19166117       5.28487362
S       -3.53767779       3.66895221       3.35741945
C       -2.49648493       2.51465955       2.49373311
C       -3.06670036       1.50108754       1.71266436
C       -2.26110080       0.68497956       0.90736013
C       -0.88099270       0.88099270       0.88099270
C       -0.30265443       1.89748648       1.63461402
C       -1.11518218       2.72560986       2.41289008
C       -1.93167186       3.39454399       5.65304170
C       -1.56926324       2.70778246       6.95653119
S       -5.30970742       3.47396354       7.48065756
C       -4.36613254       3.65243250       8.97596020
C       -4.74732057       2.80912107      10.03322246
C       -4.11190436       2.84794862      11.27862668
C       -3.08375936       3.75315243      11.49588997
C       -2.68746825       4.60411849      10.47528918
C       -3.32750797       4.55442894       9.22587736
H       -3.32352966       7.48911883       5.90736019
H       -2.46091588       6.09448819       6.52655252
H       -3.79351047       6.83011103       7.45502086
H       -4.37470681       5.90057870       4.68749523
H       -5.46475851       6.06605266       6.01861646
H       -4.14374584       1.35908828       1.69190975
H       -2.72092507      -0.08262459       0.28876271
H        0.76852835       2.07265021       1.60639356
H       -0.65358526       3.55836540       2.93775360
H       -1.63841587       4.44449356       5.68073482
H       -1.26286389       2.92576974       4.93100267
H       -0.67543577       3.17235696       7.39006286
H       -1.34087760       1.64909070       6.78437408
H       -2.36256331       2.73792944       7.68963560
H       -5.55859768       2.09291026       9.89169678
H       -4.43400460       2.16844121      12.06640312
H       -1.88267395       5.32088435      10.63045362
H       -2.96144985       5.21423849       8.46025014
C       -2.42027530       3.80033711      12.77305970
C       -1.86460741       3.83985428      13.84268935
Br      -0.96613941       3.90375020      15.57219002
C        7.19740978      -5.58730432       3.66897878
C        5.96447670      -5.41086449       4.53102681
C        4.57438050      -5.92109500       4.05674349
H        3.98655886      -5.63295247       4.94588787
C        3.76637204      -5.11887792       2.95461988
H        2.74029514      -5.50490628       2.92005285
S        3.60946851      -3.34076414       3.61381680
C        2.51269243      -2.48997300       2.50221217
C        1.22138369      -2.14077435       2.91829422
C        0.40604729      -1.33772905       2.10966415
C        0.88099270      -0.88099270       0.88099270
C        2.16904462      -1.20161501       0.46409530
C        2.98647748      -1.97875310       1.28845154
C        4.34926603      -5.09216441       1.53782712
C        4.15402386      -6.35687160       0.72268143
S        4.20704152      -7.73647397       4.32081302
C        5.00051134      -8.82878551       3.16522838
C        4.42824828     -10.10724662       3.05416918
C        4.95386668     -11.08329301       2.20131997
C        6.08402532     -10.79983392       1.44894252
C        6.67706549      -9.54971014       1.54010030
C        6.13916274      -8.57357875       2.39507278
H        7.94571091      -4.83502284       3.93927493
H        7.00423153      -5.47251185       2.60521322
H        7.66486803      -6.55687319       3.85690114
H        5.88894499      -4.33619482       4.73764093
H        6.18302461      -5.85198007       5.51442294
H        0.84931749      -2.45621092       3.88921545
H       -0.58560427      -1.05587129       2.45679617
H        2.55700673      -0.83487568      -0.48136699
H        4.01293711      -2.15839029       0.97837685
H        5.40184884      -4.80762546       1.55416996
H        3.85236420      -4.33024347       0.93702863
H        4.90434213      -6.40896455      -0.07545109
H        3.16558378      -6.36104568       0.24771291
H        4.21715841      -7.25937303       1.31359691
H        3.54310336     -10.35928767       3.64081369
H        4.47141540     -12.05772388       2.13970965
H        7.56517378      -9.31212436       0.95671378
H        6.61898911      -7.61170792       2.40524146
C        6.63250602     -11.79583011       0.56533598
C        7.09185861     -12.62997691      -0.17468449
Br       7.83459290     -13.97872175      -1.37123501
