165
Properties=species:S:1:pos:R:3 pbc="F F F"
C        0.00000000       0.00000000       0.00000000
C        4.54049957       7.52246042      -4.39073289
C        4.85770880       6.13624092      -4.91241827
C        3.75337881       5.24749316      -5.55134703
H        4.37967884       4.37572159      -5.80999877
C        2.68576184       4.52189586      -4.63221213
H        2.14486249       3.78364574      -5.23674604
S        3.68648385       3.50211667      -3.37544892
C        2.50968720       2.50657084      -2.48861956
C        2.45964334       1.12236945      -2.69843946
C        1.64684214       0.31006243      -1.89653591
C        0.88099270       0.88099270      -0.88099270
C        0.93681923       2.25126821      -0.64666750
C        1.77130317       3.05089420      -1.43148475
C        1.68037567       5.40868432      -3.89019757
C        0.54356467       5.95915430      -4.73085792
S        3.34536549       5.57055521      -7.34840782
C        2.34749543       7.01306188      -7.63396793
C        1.67567727       7.04639363      -8.86759320
C        0.86924342       8.12550238      -9.24373385
C        0.73292835       9.20997031      -8.38990311
C        1.38777629       9.21148443      -7.16761520
C        2.19124241       8.12098646      -6.79558540
Br      -0.35509108      10.67246547      -8.88192905
H        5.27823030       7.80808747      -3.63369091
H        3.56219055       7.59741870      -3.92234734
H        4.62593242       8.26445790      -5.18825203
H        5.30189257       5.58907945      -4.07180871
H        5.68663545       6.23436692      -5.62842525
H        3.07850671       0.65608409      -3.46015306
H        1.63635952      -0.76585572      -2.05655938
H        0.36054782       2.70429358       0.15432598
H        1.85589654       4.10686656      -1.18694116
H        2.18811163       6.21525233      -3.36028029
H        1.16452062       4.83537486      -3.11974083
H        0.12561889       6.85542757      -4.25680912
H       -0.26480881       5.22302402      -4.81612716
H        0.84106727       6.21015125      -5.73890983
H        1.77195863       6.20961474      -9.56163136
H        0.35911674       8.10403141     -10.20570078
H        1.29158614      10.05568698      -6.48673880
H        2.65177997       8.15913089      -5.82502762
C       -5.82142013      -7.05833874      -3.57393401
C       -5.37353102      -5.98665378      -4.54618320
C       -3.86946460      -5.79310374      -4.88965066
H       -3.97656910      -4.97049481      -5.61833529
C       -2.90226662      -5.08309834      -3.85450488
H       -1.95787305      -4.84732758      -4.36005363
S       -3.69718881      -3.39774274      -3.46911790
C       -2.51430579      -2.49823810      -2.49233370
C       -1.83703445      -1.40181330      -3.04160451
C       -1.02137978      -0.59396720      -2.23809350
C       -0.88099270      -0.88099270      -0.88099270
C       -1.56435991      -1.95356447      -0.31683056
C       -2.39830236      -2.73725401      -1.11812574
C       -2.60907841      -5.82428541      -2.54589373
C       -1.61822273      -6.96890781      -2.64644635
S       -3.14625788      -6.93375244      -6.18431819
C       -2.80202901      -8.58056562      -5.61193060
C       -1.88834754      -9.31049379      -6.39082276
C       -1.53335224     -10.62678649      -6.07834092
C       -2.10561698     -11.24862233      -4.97856245
C       -3.01591028     -10.55831706      -4.19264858
C       -3.36245223      -9.23471103      -4.51065101
Br      -1.63374188     -13.02381153      -4.54175003
H       -6.79087656      -6.78388158      -3.14525054
H       -5.13757438      -7.20319333      -2.74118889
H       -5.97975884      -8.00768937      -4.09119415
H       -5.76646998      -5.03932336      -4.15698740
H       -5.93053422      -6.13636135      -5.48253206
H       -1.96496702      -1.14112948      -4.08864736
H       -0.52039389       0.26751640      -2.67418570
H       -1.47879507      -2.17450142       0.74278107
H       -2.97884723      -3.52556379      -0.64529324
H       -3.53221799      -6.15947493      -2.07195134
H       -2.14081561      -5.15294281      -1.82587788
H       -1.76202876      -7.66474607      -1.81108076
H       -0.58903357      -6.59431309      -2.59099571
H       -1.69696542      -7.52137705      -3.57178587
H       -1.42920042      -8.84781363      -7.26619067
H       -0.81305138     -11.15105111      -6.70474644
H       -3.47452628     -11.03286291      -3.32662274
H       -4.04918590      -8.73522231      -3.85153028
C       -5.06390960       3.96640670       7.42337658
C       -5.19601214       4.63815725       6.07219861
C       -5.80935292       3.88457792       4.85828816
H       -5.74856421       4.70024946       4.11658553
C       -4.96041599       2.78816008       4.09129376
H       -5.47232808       2.53918441       3.15374178
S       -3.34738710       3.65035316       3.56630919
C       -2.48881453       2.50554095       2.51052213
C       -2.38928460       2.75547898       1.13568867
C       -1.58703023       1.94502516       0.32138509
C       -0.88099270       0.88099270       0.88099270
C       -0.95289221       0.63363720       2.24822552
C       -1.73201693       1.46333392       3.05833126
C       -4.63038693       1.49863649       4.85023413
C       -5.76465088       0.49814644       4.97077957
S       -7.67655213       3.83713398       4.75064241
C       -8.45350657       2.68385172       5.85716694
C       -9.76415697       2.31029850       5.51520862
C      -10.51188750       1.42648498       6.30010718
C       -9.96142711       0.90840001       7.46297464
C       -8.67250303       1.26191947       7.83245342
C       -7.92670046       2.14587495       7.03523886
Br     -10.95692022      -0.28866844       8.53105166
H       -4.26904469       4.45183321       7.99913078
H       -4.80947287       2.91118109       7.36130264
H       -5.97810736       4.09204980       8.00848520
H       -4.18810351       4.97475258       5.79992466
H       -5.75337511       5.57431971       6.22173281
H       -2.90228613       3.60301431       0.68944342
H       -1.50157921       2.16582519      -0.74034121
H       -0.39158687      -0.17948920       2.69841775
H       -1.71862988       1.29822263       4.13285174
H       -4.21122243       1.72015332       5.83226850
H       -3.85786006       0.93626246       4.32551378
H       -5.58686741      -0.17060087       5.82158905
H       -5.82824489      -0.12348450       4.06958198
H       -6.73222340       0.96297563       5.09492932
H      -10.22423610       2.70940743       4.60956120
H      -11.52081131       1.15696439       5.99107322
H       -8.22667206       0.86449534       8.74284452
H       -6.92226809       2.36296181       7.35070859
C        5.73052073      -3.60801770       7.11515445
C        5.46888078      -4.51043080       5.92705641
C        5.93948511      -4.11347461       4.49925929
H        5.59201322      -5.01260745       3.96077852
C        5.14897417      -3.01207816       3.67881750
H        5.49316925      -3.03445699       2.63762803
S        3.34103575      -3.60266125       3.62035245
C        2.49042808      -2.50128690       2.51316261
C        2.07165788      -2.95362998       1.25516440
C        1.26832509      -2.14549875       0.43961664
C        0.88099270      -0.88099270       0.88099270
C        1.27113122      -0.42677975       2.13684397
C        2.04806022      -1.24945273       2.95616916
C        5.20292505      -1.57330354       4.20302896
C        6.48990856      -0.81975629       3.92391204
S        7.72609933      -4.46705827       4.07117091
C        8.89555451      -3.32709886       4.77187186
C       10.15258038      -3.29206138       4.14502234
C       11.18279080      -2.46018203       4.59550683
C       10.97666050      -1.65227100       5.70387026
C        9.74957984      -1.66778806       6.34950802
C        8.71869031      -2.50227297       5.88685098
Br      12.35638726      -0.52118090       6.32173527
H        4.99976413      -3.81684707       7.90339749
H        5.65027735      -2.54894550       6.88273375
H        6.71039339      -3.81723501       7.55101396
H        4.38462615      -4.67512434       5.90303025
H        5.87916107      -5.50179496       6.16847159
H        2.33245998      -3.95085199       0.91143189
H        0.93196342      -2.51986335      -0.52476359
H        0.95875667       0.54778718       2.49954593
H        2.28233858      -0.90645651       3.96090916
H        4.96187703      -1.53588558       5.26588164
H        4.44558144      -0.96168159       3.71237327
H        6.60483813       0.00478176       4.63779922
H        6.47198590      -0.38512061       2.91723587
H        7.36999694      -1.44462279       3.97550861
H       10.34411186      -3.92345048       3.27564239
H       12.13804620      -2.45832003       4.07248270
H        9.57247287      -1.04013326       7.22140579
H        7.77791437      -2.45340416       6.40461996
