181
Properties=species:S:1:pos:R:3 pbc="F F F"
C        0.00000000       0.00000000       0.00000000
C        6.44854926       3.72278896      -0.53621928
C        5.53839497       3.15314978      -1.62183146
C        4.70970737       4.23544940      -2.33901873
H        4.12555633       4.80411960      -1.60725469
S        3.54064053       3.47687501      -3.55267155
C        2.50262893       2.49446662      -2.48955784
C        1.76878828       3.05775088      -1.44078001
C        0.96157600       2.25077750      -0.63304177
C        0.88153345       0.88153345      -0.88153345
C        1.59546183       0.31231492      -1.93304743
C        2.40058837       1.12086597      -2.73859525
C        5.59274229       5.16503221      -3.07233957
C        6.35503664       5.88290428      -3.65612323
C        7.40325634       6.74548354      -4.36665511
C        8.29836452       7.35884058      -4.85558902
C        9.38438040       8.10301788      -5.44880871
H       10.32881338       7.85717632      -4.95112051
S        9.57218007       7.69965068      -7.23956528
C        9.91071622       5.94898145      -7.17140007
C       11.00624599       5.43525413      -6.46956226
C       11.25381810       4.05915375      -6.45638682
C       10.41005318       3.19711564      -7.15430942
C        9.32373898       3.69776355      -7.86763710
C        9.07858928       5.07347960      -7.87863086
Br      10.74829357       1.33761162      -7.14146180
C        9.15872926       9.62150100      -5.33841197
C        9.15769315      10.11950656      -3.89587692
H        6.95040397       2.90825868      -0.00363993
H        5.87450034       4.30139317       0.19442586
H        7.22475118       4.36869350      -0.95763546
H        4.87886936       2.42549162      -1.13552352
H        6.15626064       2.59774193      -2.33930529
H        1.80428570       4.12690436      -1.24803542
H        0.39587595       2.69982771       0.17920789
H        1.53201569      -0.75311159      -2.13780218
H        2.95138811       0.66836017      -3.56077804
H       11.68535217       6.09594561      -5.93763713
H       12.10811653       3.67313928      -5.90662901
H        8.66465152       3.03218397      -8.41867382
H        8.22903304       5.45528913      -8.44095717
H        8.20836795       9.91097464      -5.80646081
H        9.95654435      10.15660207      -5.87009839
H        8.31456673       9.71125887      -3.33023354
H        9.07198251      11.21083469      -3.87691033
H       10.08494364       9.84344744      -3.38411938
C       -0.15336939      -5.35295866      -5.20122945
C       -1.20227901      -4.93959854      -4.17149867
C       -2.36263987      -4.13487091      -4.78666472
H       -1.97085382      -3.25591933      -5.31015747
S       -3.53360653      -3.55805359      -3.47852697
C       -2.48809985      -2.50067473      -2.49787882
C       -1.83186476      -1.39251722      -3.04293719
C       -1.02423029      -0.58510202      -2.23606296
C       -0.88153345      -0.88153345      -0.88153345
C       -1.54298375      -1.97320089      -0.32463954
C       -2.34948368      -2.77769786      -1.13286805
C       -3.11935390      -4.96484582      -5.74591435
C       -3.70242223      -5.68576378      -6.50587814
C       -4.38251082      -6.67797015      -7.45491402
C       -4.81808987      -7.51851150      -8.17619276
C       -5.34657597      -8.53832355      -9.05130747
H       -4.60507799      -9.33062073      -9.20141149
S       -6.86030126      -9.31455181      -8.33654296
C       -6.22134244      -9.99431417      -6.81544114
C       -5.17962633     -10.92778409      -6.80365195
C       -4.71912566     -11.45638858      -5.59384443
C       -5.30815611     -11.05801178      -4.39531034
C       -6.35482612     -10.13929252      -4.39502099
C       -6.81265111      -9.61240715      -5.60564147
Br      -4.68970081     -11.77717721      -2.76048897
C       -5.72777538      -7.96359679     -10.42727005
C       -4.52503999      -7.44053861     -11.20749803
H        0.68653736      -5.84702437      -4.70181557
H        0.23674186      -4.48157413      -5.73663538
H       -0.56133664      -6.05612857      -5.93361493
H       -0.68481784      -4.34459038      -3.41047628
H       -1.57714712      -5.84300128      -3.67315946
H       -1.95040255      -1.13623452      -4.09258842
H       -0.51908124       0.27347808      -2.67089261
H       -1.44283811      -2.20603616       0.73216799
H       -2.86617272      -3.62598035      -0.68837324
H       -4.72385683     -11.26420594      -7.73087214
H       -3.90867268     -12.18041069      -5.59880145
H       -6.82263738      -9.82808581      -3.46478611
H       -7.63258480      -8.89732788      -5.59536665
H       -6.45541743      -7.14772604     -10.32265994
H       -6.20214083      -8.74276982     -11.03833417
H       -4.06524489      -6.58159034     -10.70922391
H       -4.83857186      -7.11609272     -12.20506295
H       -3.76553141      -8.21940008     -11.32757896
C       -0.69861303       6.60960953       3.39933494
C       -1.76018307       5.61258099       2.94061215
C       -2.37128231       4.80898838       4.10390481
H       -1.57874611       4.29733190       4.66085261
S       -3.55602146       3.53642539       3.47774024
C       -2.49003029       2.50286520       2.49375790
C       -1.37331779       1.85849710       3.03550428
C       -0.56556844       1.05132615       2.22850068
C       -0.88153345       0.88153345       0.88153345
C       -2.00017224       1.50557064       0.33508129
C       -2.80553697       2.31086688       1.14364574
C       -3.10257871       5.70258356       5.02495180
C       -3.68925434       6.47186511       5.73294470
C       -4.41065211       7.52760380       6.57713909
C       -4.91575982       8.42847707       7.16855724
C       -5.52860259       9.52148751       7.88611689
H       -5.09842375      10.47573785       7.56294861
S       -7.34596123       9.59101671       7.57441809
C       -7.38994449       9.83397403       5.80717922
C       -6.77892450      10.93468537       5.19745251
C       -6.85274247      11.10503834       3.81157785
C       -7.54703037      10.17838728       3.03606059
C       -8.17071727       9.08552032       3.63290205
C       -8.09488040       8.91767680       5.01814253
Br      -7.65192836      10.41200838       1.16343025
C       -5.32525068       9.38753712       9.40585442
C       -3.86052299       9.49103142       9.82152221
H       -0.23902157       7.09256106       2.53071994
H        0.09276850       6.10852273       3.96571342
H       -1.12800754       7.39734225       4.02573035
H       -1.27697547       4.94003654       2.22287249
H       -2.53965843       6.15935402       2.39429540
H       -1.12636938       1.96408691       4.08876920
H        0.29982650       0.55563025       2.66069202
H       -2.25732953       1.37168690      -0.71231015
H       -3.68018315       2.79098572       0.70935744
H       -6.25159449      11.67706268       5.79027774
H       -6.37303730      11.96432651       3.35052101
H       -8.71848409       8.36181297       3.03521224
H       -8.58760578       8.06221346       5.47546010
H       -5.72322940       8.43139710       9.77117690
H       -5.87168175      10.18474881       9.92681426
H       -3.27095937       8.65756146       9.42753831
H       -3.77885806       9.46779155      10.91307793
H       -3.41695766      10.42720289       9.46834990
C        5.70989557      -0.19239903       4.80526290
C        4.54414109      -1.15903730       4.61019783
C        4.95253719      -2.45204844       3.87958987
H        5.41356864      -2.20678423       2.91657776
S        3.48175897      -3.52526402       3.56316410
C        2.49913489      -2.48793148       2.49958703
C        2.98249476      -2.00572251       1.27910190
C        2.17563615      -1.19814889       0.47161023
C        0.88153345      -0.88153345       0.88153345
C        0.38417178      -1.36922971       2.08742269
C        1.19216517      -2.17611196       2.89177245
C        5.91755254      -3.22352860       4.68903294
C        6.69054265      -3.81229082       5.39123067
C        7.67047565      -4.49103736       6.35388199
C        8.43251679      -4.91803272       7.16224461
C        9.35708705      -5.43610451       8.14301543
H        9.66360989      -4.64148904       8.83201128
S        8.58630265      -6.78067010       9.14442328
C        7.21726655      -5.91768329       9.89614790
C        7.40817092      -4.79477058      10.70812088
C        6.31335479      -4.15675530      11.29924858
C        5.02706390      -4.64869586      11.08571848
C        4.82532242      -5.77376455      10.29005267
C        5.92138974      -6.40905299       9.70025702
Br       3.54778403      -3.78984928      11.88973368
C       10.61903021      -6.01813650       7.48147551
C       11.45164119      -4.96363816       6.75779727
H        5.35116022       0.74075814       5.25190050
H        6.18336845       0.05065739       3.84875659
H        6.47075679      -0.60667459       5.47364875
H        3.77732678      -0.62278982       4.03976791
H        4.11228989      -1.38790069       5.59311728
H        3.98166933      -2.26153957       0.93601659
H        2.56220852      -0.82915233      -0.47486508
H       -0.62641287      -1.13312103       2.40999812
H        0.79379136      -2.55648407       3.83025087
H        8.40634348      -4.41136089      10.90123054
H        6.47561665      -3.28487606      11.92739211
H        3.82572082      -6.16630255      10.12348593
H        5.75390970      -7.28886448       9.08250516
H       10.35631716      -6.80626415       6.76322209
H       11.26161081      -6.47756611       8.24406790
H       10.91059696      -4.53860461       5.90685757
H       12.37289572      -5.41338244       6.37344937
H       11.72876396      -4.14926644       7.43448005
