89
Properties=species:S:1:pos:R:3 pbc="F F F"
C        0.00000000       0.00000000       0.00000000
C        0.88498832       0.88498832      -0.88498832
N        0.48361891       2.15418970      -1.10013688
C        1.27821208       2.91639321      -1.88596065
C        2.45891212       2.47142609      -2.46789153
C        2.86498529       1.15050985      -2.23310422
C        2.04671226       0.34840758      -1.42097299
C        4.09364350       0.57198645      -2.79232927
C        5.34554542       0.85557310      -2.22451815
C        6.51165542       0.29573553      -2.75161492
C        6.44040044      -0.55838707      -3.84991025
C        5.20514941      -0.85393203      -4.42196990
C        4.03885269      -0.29330103      -3.89618122
H        0.91952182       3.93109448      -2.03899573
H        2.32376376      -0.68096955      -1.21143567
H        5.42045535       1.51949333      -1.36550677
H        7.47494945       0.52784244      -2.30489132
H        7.34817560      -0.99289411      -4.26060383
H        5.14865365      -1.51944155      -5.27976979
H        3.08332172      -0.53229081      -4.35865903
C        3.20012028       3.38609197      -3.29710610
C        3.82088210       4.15212464      -3.99157331
Br       4.82460148       5.39073467      -5.11446804
C       -0.88498832      -0.88498832      -0.88498832
N       -0.57633477      -2.19508084      -0.96652989
C       -1.36888340      -2.95675936      -1.75492317
C       -2.45926842      -2.47209926      -2.46686206
C       -2.76976763      -1.10861468      -2.37021705
C       -1.95237857      -0.30692288      -1.55679140
C       -3.89832199      -0.48564602      -3.07399121
C       -5.20989380      -0.62251675      -2.59322611
C       -6.28037421      -0.02025940      -3.25837225
C       -6.05256165       0.73033926      -4.40970123
C       -4.75619596       0.88002372      -4.89701504
C       -3.68549534       0.27685363      -4.23309116
H       -1.08603721      -4.00548814      -1.79808668
H       -2.15726951       0.75480702      -1.45176738
H       -5.40678016      -1.20400727      -1.69466801
H       -7.29151217      -0.13855688      -2.87761415
H       -6.88597399       1.19784626      -4.92775759
H       -4.57756310       1.46462309      -5.79604187
H       -2.68026870       0.40126559      -4.63068683
C       -3.20824269      -3.39302918      -3.28204647
C       -3.83550865      -4.16430798      -3.96476342
Br      -4.84974464      -5.41140057      -5.06865898
C       -0.88498832       0.88498832       0.88498832
N       -2.08403342       0.39462872       1.25928335
C       -2.84945984       1.19331002       2.03779607
C       -2.47345202       2.46148193       2.46329579
C       -1.22300121       2.95693742       2.06866073
C       -0.42032167       2.13793214       1.25783903
C       -0.71890883       4.28000813       2.45904226
C       -0.18762122       4.49827758       3.73973786
C        0.30093889       5.75479991       4.10514484
C        0.26892445       6.80757115       3.19327692
C       -0.25052733       6.60610798       1.91655196
C       -0.74050262       5.35018758       1.55104268
H       -3.80934015       0.76508177       2.31519012
H        0.55679852       2.48126930       0.92975909
H       -0.15325305       3.68743909       4.46476331
H        0.70517391       5.91092194       5.10193517
H        0.64806651       7.78557438       3.47837745
H       -0.27698336       7.42734037       1.20465815
H       -1.14630712       5.21255006       0.55083275
C       -3.39487004       3.21125488       3.27719343
C       -4.16655763       3.83918972       3.95883270
Br      -5.41431119       4.85450726       5.06098575
C        0.88498832      -0.88498832       0.88498832
N        2.08427686      -0.39486113       1.25880750
C        2.84969761      -1.19353874       2.03732959
C        2.47345253      -2.46148479       2.46329242
C        1.22275111      -2.95669912       2.06914912
C        0.42007388      -2.13769614       1.25832282
C        0.71839613      -4.27951778       2.46004531
C        0.18740788      -4.49727686       3.74095192
C       -0.30140313      -5.75355856       4.10685044
C       -0.26994206      -6.80659554       3.19527015
C        0.24920676      -6.60563828       1.91834224
C        0.73943274      -5.34995894       1.55234119
H        3.80977659      -0.76550280       2.31433265
H       -0.55723535      -2.48085041       0.93061481
H        0.15347231      -3.68622457       4.46575857
H       -0.70540128      -5.90928598       5.10379851
H       -0.64927921      -7.78441159       3.48075293
H        0.27523095      -7.42707855       1.20667239
H        1.14499420      -5.21271744       0.55197829
C        3.39488860      -3.21128803       3.27714171
C        4.16659130      -3.83924825       3.95874049
Br       5.41436931      -4.85460681       5.06082808
