157
Properties=species:S:1:pos:R:3 pbc="F F F"
C        0.00000000       0.00000000       0.00000000
C        0.88487256       0.88487256      -0.88487256
N        2.21142956       0.68710049      -0.84000595
C        2.96565252       1.45909334      -1.65446302
C        2.47792583       2.44225943      -2.52788734
C        1.07323306       2.68521194      -2.50073621
C        0.28440323       1.84999781      -1.67816713
C        0.37193846       3.77961894      -3.23832603
C        0.64359464       4.10996153      -4.57682728
C        0.01349471       5.19306562      -5.20752111
C       -0.94845824       5.93686059      -4.53293818
C       -1.27539158       5.60661343      -3.22432011
C       -0.61257153       4.55322965      -2.58499602
C        3.42596975       3.14925739      -3.42007195
C        3.54728734       4.54138556      -3.30925651
N        4.26690450       5.33675124      -4.13268422
C        4.90830889       4.72917383      -5.14195094
C        4.91331926       3.35614541      -5.31958304
C        4.20699919       2.51919030      -4.42866897
C        4.39117822       1.05097592      -4.58764819
C        5.69219065       0.52457457      -4.75063072
C        5.92987485      -0.84591831      -4.87513226
C        4.86784104      -1.73855117      -4.81377934
C        3.57168808      -1.25410033      -4.65765546
C        3.33290434       0.12428023      -4.56945149
Br       5.86234902       5.81343212      -6.36924740
H        4.03140118       1.24181179      -1.59790318
H       -0.79319963       1.95488710      -1.65623670
H        1.36893897       3.54529204      -5.15670047
H        0.28149414       5.45524025      -6.22783280
H       -1.44069163       6.77186522      -5.02450723
H       -2.03544052       6.17422554      -2.69180601
H       -0.87477737       4.35213284      -1.54735552
H        3.01538802       5.08645736      -2.53101075
H        5.46915843       2.92808913      -6.14992264
H        6.55369955       1.19054595      -4.77263551
H        6.94539427      -1.21231020      -5.00688575
H        5.04949309      -2.80767614      -4.88546357
H        2.74056074      -1.95300045      -4.59874613
H        2.30225148       0.45561218      -4.46799020
C       -0.88487256      -0.88487256      -0.88487256
N       -0.29157432      -1.86899680      -1.57796488
C       -1.09974363      -2.65454008      -2.32492517
C       -2.49153949      -2.52059079      -2.43594232
C       -3.08723119      -1.42128731      -1.75066272
C       -2.24568313      -0.62697378      -0.93991126
C       -4.52152802      -1.01425747      -1.85409793
C       -5.59051829      -1.92540906      -1.81445609
C       -6.91800639      -1.50688829      -1.98918676
C       -7.21459587      -0.15776041      -2.14898425
C       -6.18528197       0.77440054      -2.14466052
C       -4.85916184       0.34770611      -2.01419841
C       -3.25085453      -3.51392901      -3.23051555
C       -3.99146780      -3.07118772      -4.33527390
N       -4.83192847      -3.82984655      -5.07456495
C       -4.96434871      -5.11191510      -4.70316985
C       -4.24137995      -5.67972446      -3.66794330
C       -3.32268553      -4.90263734      -2.92953559
C       -2.46830805      -5.61825496      -1.94323932
C       -1.82877203      -6.82131933      -2.31730456
C       -0.99244240      -7.52146345      -1.44518295
C       -0.74892254      -7.02140904      -0.17273764
C       -1.36583267      -5.83993472       0.23052418
C       -2.23329270      -5.15881380      -0.63452957
Br      -6.19375741      -6.19162140      -5.65964972
H       -0.57239081      -3.45183984      -2.84688550
H       -2.65154757       0.19005528      -0.35643188
H       -5.41532353      -2.98794703      -1.66766093
H       -7.71910774      -2.24147167      -2.00398778
H       -8.24395812       0.16620494      -2.27792763
H       -6.40756868       1.83342016      -2.25644251
H       -4.08150414       1.10907827      -2.05228511
H       -3.94900193      -2.03061877      -4.65323543
H       -4.38535768      -6.73081073      -3.43100178
H       -1.97060759      -7.22904972      -3.31722372
H       -0.52396399      -8.44859991      -1.76740591
H       -0.07959764      -7.54919405       0.50151118
H       -1.16727401      -5.44198556       1.22295315
H       -2.70673698      -4.25119684      -0.26792004
C       -0.88487256       0.88487256       0.88487256
N       -2.06914570       0.39121917       1.27817113
C       -2.81513140       1.17969461       2.08438287
C       -2.45624585       2.45950513       2.53232162
C       -1.22879274       2.99139706       2.03899142
C       -0.43384581       2.14953366       1.22918870
C       -0.73462982       4.38231438       2.27293924
C       -0.78496928       5.02274620       3.52266797
C       -0.37753107       6.35575179       3.68079858
C        0.14624700       7.06324467       2.60434286
C        0.25459943       6.44406684       1.36607455
C       -0.19392342       5.12881407       1.20291664
C       -3.34578025       3.16714105       3.48237778
C       -3.89334589       4.40078224       3.10380128
N       -4.61205802       5.22135529       3.90292666
C       -4.80328794       4.81069756       5.16544816
C       -4.36377496       3.58622970       5.63904305
C       -3.66026001       2.70416345       4.79043500
C       -3.36334506       1.34569295       5.32076432
C       -4.38059753       0.61364980       5.97314861
C       -4.16988980      -0.67615074       6.46534974
C       -2.93394925      -1.28603420       6.29515417
C       -1.90732075      -0.59203352       5.65995598
C       -2.11121223       0.71603317       5.19939066
Br      -5.73457053       5.96621298       6.34424503
H       -3.75395792       0.72280140       2.39435684
H        0.53154608       2.48153514       0.86793511
H       -1.16286146       4.50669804       4.40137198
H       -0.47555761       6.83994100       4.64906858
H        0.46755903       8.09392789       2.72931196
H        0.67446065       6.98456090       0.52049079
H       -0.12314642       4.69497169       0.20659287
H       -3.73377603       4.79692497       2.10215513
H       -4.56840436       3.30879580       6.66997004
H       -5.37226666       1.04620138       6.09841298
H       -4.97600976      -1.20487766       6.96883771
H       -2.77176633      -2.29886214       6.65437633
H       -0.94243322      -1.07284450       5.51671770
H       -1.27392967       1.22449368       4.72743051
C        0.88487256      -0.88487256       0.88487256
N        0.59106918      -2.19240187       0.95506495
C        1.40702440      -2.95533555       1.71684893
C        2.51945945      -2.49322228       2.43539087
C        2.76470968      -1.08898479       2.40548675
C        1.93431205      -0.30110930       1.57714682
C        3.80115981      -0.37620658       3.21251704
C        5.11707190      -0.84314404       3.37016750
C        6.03644894      -0.18060314       4.19702937
C        5.68000307       0.99935213       4.84068959
C        4.40189569       1.51409501       4.66774128
C        3.47462481       0.82628688       3.87731620
C        3.36717069      -3.46914721       3.15898118
C        3.50753040      -3.34243871       4.54796030
N        4.34219711      -4.06984301       5.32429985
C        5.10017026      -4.98181833       4.69744507
C        5.00794321      -5.24060737       3.34049713
C        4.09782299      -4.51979033       2.53724514
C        3.94058341      -4.96372662       1.12549230
C        3.78907614      -6.33902076       0.83929903
C        3.60863344      -6.81250215      -0.46204679
C        3.54803162      -5.91532742      -1.52028984
C        3.69735343      -4.55277182      -1.27488204
C        3.91463141      -4.08392658       0.02807806
Br       6.34377985      -5.96743241       5.73381628
H        1.13991814      -4.01121191       1.71998609
H        2.10575360       0.76330686       1.47547742
H        5.45406619      -1.74714452       2.86972077
H        7.03177410      -0.59386941       4.33892368
H        6.39499444       1.51536501       5.47605139
H        4.11687958       2.44308416       5.15679561
H        2.47331096       1.24704816       3.79844818
H        2.94372185      -2.59082525       5.09830903
H        5.64080928      -6.00665827       2.89970265
H        3.80020168      -7.07077816       1.64590118
H        3.50330140      -7.87974811      -0.64307969
H        3.38323825      -6.27616423      -2.53212196
H        3.63931184      -3.84862453      -2.10162995
H        4.04499143      -3.01345303       0.16740939
