186
Properties=species:S:1:pos:R:3 pbc="F F F"
C        1.79656165       1.79656165      -1.79656165
C        1.21423011       2.94728609      -2.31933756
N        1.87459256       3.88208248      -3.03893226
C        3.20217040       3.69052078      -3.24183516
C        3.84824920       2.53816342      -2.78537946
C        3.15319150       1.55163465      -2.05388035
C        3.89220024       0.35187732      -1.59713029
C        3.41924411      -0.94835819      -1.84424002
C        4.12971891      -2.07449178      -1.41656604
C        5.34861556      -1.92383816      -0.76280658
C        5.85334421      -0.64855389      -0.53027008
C        5.12882792       0.47607708      -0.93664993
C        3.93262443       4.79609135      -3.89867131
N        5.24489826       4.93057742      -3.58138497
C        5.89085319       6.01821905      -4.06249999
C        5.31026320       6.98751660      -4.87425129
C        3.97174652       6.82830339      -5.26130832
C        3.29245425       5.70597347      -4.74393200
C        3.23365316       7.75747831      -6.14604569
C        3.72970332       8.13251308      -7.40633461
C        3.01354443       8.99648727      -8.24088113
C        1.76954752       9.47827352      -7.84475584
C        1.24489995       9.10354668      -6.61201912
C        1.97322202       8.25853125      -5.76969630
H        0.16388138       3.17324709      -2.15187670
H        4.90936684       2.41726387      -2.99501799
H        2.48489035      -1.10385535      -2.37974501
H        3.73087710      -3.06869879      -1.60104337
H        5.90604535      -2.79888427      -0.43908426
H        6.81092582      -0.52489791      -0.03100058
H        5.54549676       1.46080759      -0.73130001
H        6.92699110       6.09881429      -3.74262837
H        2.24479561       5.54136145      -4.98945626
H        4.68501330       7.74990966      -7.75976332
H        3.42731325       9.28613491      -9.20339235
H        1.20791727      10.14097453      -8.49783284
H        0.26829387       9.46680833      -6.30256867
H        1.54039964       7.98891015      -4.80756438
C        6.11823202       8.13135775      -5.20953298
C        6.79490591       9.08932471      -5.49033140
Br       7.88903036      10.63827627      -5.94435868
C       -1.79656165      -1.79656165      -1.79656165
C       -3.05713655      -1.30370844      -2.12000877
N       -3.92455924      -1.90919187      -2.96185620
C       -3.52249363      -3.06530444      -3.54672827
C       -2.28855376      -3.64493048      -3.23830784
C       -1.39296262      -3.02394572      -2.34179817
C       -0.09998856      -3.68702510      -2.05419419
C        0.33913149      -3.91548770      -0.73876972
C        1.55752200      -4.55081493      -0.47850023
C        2.34704105      -5.00389705      -1.53072798
C        1.92257583      -4.81559388      -2.84204236
C        0.71605872      -4.15777767      -3.09983598
C       -4.42278056      -3.62854536      -4.57606116
N       -3.83930797      -4.35600836      -5.56154432
C       -4.62800426      -4.75845835      -6.58510962
C       -5.99139694      -4.49887724      -6.68175692
C       -6.61983692      -3.80194085      -5.63958047
C       -5.79485643      -3.36485357      -4.58264973
C       -8.06451500      -3.48374887      -5.58891329
C       -9.04800104      -4.47541099      -5.74513899
C      -10.40982746      -4.16477598      -5.67630938
C      -10.81603743      -2.85921866      -5.41732079
C       -9.86231040      -1.86294841      -5.23520693
C       -8.50209966      -2.17161986      -5.32773005
H       -3.41454517      -0.36042993      -1.71403008
H       -2.02115438      -4.58671717      -3.71377715
H       -0.26737523      -3.60182166       0.10841688
H        1.88433473      -4.69559690       0.54804050
H        3.28924355      -5.50662484      -1.32886405
H        2.52917595      -5.17834780      -3.66785665
H        0.41604216      -4.01671504      -4.13693147
H       -4.10126297      -5.29989232      -7.36727846
H       -6.22083143      -2.79825563      -3.75652626
H       -8.76457779      -5.51150785      -5.91860064
H      -11.15138188      -4.94664396      -5.81881467
H      -11.87413743      -2.61965935      -5.35292786
H      -10.17340055      -0.84384621      -5.02042411
H       -7.77903094      -1.36944323      -5.18840000
C       -6.65357169      -4.91450631      -7.89104475
C       -7.20814305      -5.26259565      -8.90382331
Br      -8.10483804      -5.82542667     -10.54140059
C       -1.79656165       1.79656165       1.79656165
C       -3.02744356       1.27297542       2.18043478
N       -3.88655995       1.87787398       3.03117338
C       -3.50566594       3.06669514       3.56216526
C       -2.30391738       3.67657644       3.19129826
C       -1.41797230       3.05523387       2.28550033
C       -0.15947741       3.75119541       1.93053503
C        0.22662460       3.94818369       0.59356684
C        1.41252077       4.61486007       0.26945386
C        2.22083410       5.13095504       1.27746305
C        1.84782438       4.97443039       2.60845440
C        0.67449120       4.28560667       2.93043947
C       -4.38978629       3.63485413       4.60274667
N       -3.79913999       4.41569751       5.54202315
C       -4.56636726       4.82682916       6.57837582
C       -5.91578489       4.52481920       6.73142700
C       -6.55433192       3.77096003       5.73606629
C       -5.75077938       3.32529133       4.66628901
C       -7.98786971       3.40250097       5.74680648
C       -8.99962647       4.36518793       5.90373660
C      -10.35128986       4.00644364       5.89317932
C      -10.72006676       2.67962514       5.69288498
C       -9.73874811       1.71042238       5.51129525
C       -8.38782824       2.06798039       5.54564094
H       -3.36513407       0.30451030       1.81936081
H       -2.05372644       4.64293980       3.62498246
H       -0.39683879       3.58470965      -0.22076843
H        1.69915093       4.73458274      -0.77221014
H        3.13748831       5.65789135       1.02584229
H        2.46893935       5.38618894       3.39977890
H        0.41485226       4.17087495       3.98158167
H       -4.03274911       5.41282623       7.32285841
H       -6.18435654       2.71602982       3.87522696
H       -8.74694908       5.41571728       6.03201992
H      -11.11452035       4.76728889       6.03503127
H      -11.77070243       2.40230202       5.67372018
H      -10.02105246       0.67448482       5.34213359
H       -7.64224303       1.28633642       5.40829472
C       -6.55081951       4.95989708       7.94840616
C       -7.08266100       5.32427481       8.96762620
Br      -7.94260371       5.91344278      10.61561881
C        1.79656165      -1.79656165       1.79656165
C        1.28933242      -3.04400823       2.14751311
N        1.97235354      -3.98223906       2.84101471
C        3.24860471      -3.68988509       3.19603654
C        3.81263146      -2.44169980       2.91746082
C        3.09104689      -1.45424001       2.21341959
C        3.74227027      -0.15043896       1.94849861
C        3.11743843       1.06791729       2.26560479
C        3.74525538       2.29316626       2.01970404
C        5.02866615       2.32442169       1.48333952
C        5.68104804       1.13223526       1.18624763
C        5.04115106      -0.09064584       1.40975804
C        4.02440622      -4.78428427       3.81869659
N        5.36734297      -4.76286787       3.62664981
C        6.07396158      -5.82933370       4.06827695
C        5.52296134      -6.92659979       4.72246997
C        4.14500810      -6.93312904       4.98322109
C        3.40518542      -5.83168784       4.50548646
C        3.42711677      -8.01279805       5.69726234
C        3.83967240      -8.46743881       6.96143979
C        3.14147981      -9.47534414       7.63408887
C        1.99576153     -10.02752057       7.06929477
C        1.55235337      -9.57867220       5.82944017
C        2.26526100      -8.58761359       5.14857498
H        0.28787296      -3.34828548       1.85284674
H        4.83161679      -2.24479893       3.24523298
H        2.12632857       1.08005840       2.71450984
H        3.23105835       3.22176458       2.25392790
H        5.52101673       3.27610074       1.30132936
H        6.68852389       1.15006949       0.77857409
H        5.57397179      -1.00605878       1.15757380
H        7.13813305      -5.77996102       3.85033968
H        2.32789525      -5.79129408       4.65642399
H        4.71363680      -8.03595474       7.44509475
H        3.49147638      -9.82250969       8.60285444
H        1.44682658     -10.80309595       7.59680211
H        0.65122299      -9.99749528       5.38895260
H        1.89841471      -8.26209248       4.17636698
C        6.40936294      -8.01868828       5.03107153
C        7.15172428      -8.93331240       5.28952534
Br       8.35205978     -10.41218223       5.70742330
C       -0.00445707       0.01189536      -1.78238275
H       -0.66409135       0.67374010      -2.43557963
H        0.65740317      -0.63156657      -2.45157240
C       -0.90989263      -0.90692880      -0.91072765
C        0.90977584       0.90977584      -0.90977584
C       -0.00465871       1.77757030       0.00794375
H       -0.66225468       2.44313916      -0.64384735
H        0.64322798       2.43503045       0.67728295
C       -1.78241447       0.00034974      -0.00472694
H       -2.45427497      -0.65498947       0.64260836
H       -2.43311707       0.67328779      -0.65473579
C       -0.91132561       0.90220522       0.91563759
C       -0.01476271      -0.02253852       1.78660255
H       -0.67934791      -0.69751639       2.42135241
H        0.63392994       0.61504881       2.47327442
C        0.01484550      -1.77751727      -0.01636693
H        0.67870853      -2.42144646      -0.68295456
H       -0.62264859      -2.45592969       0.64226336
C        1.78714474       0.01002794       0.00389507
H        2.44202412       0.67113390       0.66197326
H        2.45385902      -0.65136977      -0.64189061
C        0.91606151      -0.90478549       0.90901405
