186
Properties=species:S:1:pos:R:3 pbc="F F F"
C        1.83230284       1.83230284      -1.83230284
H        2.50529480       2.32519200      -1.12192076
N        1.02538662       2.82742569      -2.50154639
C        0.14275884       2.58544874      -3.51952323
O       -0.15729243       1.53297250      -4.04979658
C       -0.40521972       3.88319782      -3.91074543
C        0.17457259       4.84319709      -3.10199979
C        1.09465712       4.15925181      -2.19822227
O        1.78643897       4.72128371      -1.37099326
C       -0.11684083       6.18671247      -3.23258750
C       -1.03146288       6.54619330      -4.22700252
C       -1.62350588       5.56763488      -5.05306289
C       -1.31147320       4.21273539      -4.89880925
C        2.65030079       0.94387787      -2.77431266
C        3.62239323       1.76171041      -3.63869573
C        4.44913920       0.86930352      -4.56748508
H        5.05174526       0.17863944      -3.96739711
N        3.66909609       0.12098183      -5.52771966
C        3.70784041      -1.24428395      -5.60229281
O        4.34580280      -2.02982062      -4.92788850
C        2.78761278      -1.63251341      -6.66689773
C        2.22463075      -0.47555360      -7.17350576
C        2.78339143       0.65171119      -6.42714600
O        2.47033526       1.81212703      -6.61297013
C        1.30324656      -0.50413631      -8.20178811
C        0.95599407      -1.75874743      -8.71467748
C        1.52817922      -2.93818130      -8.19354477
C        2.45965643      -2.88316767      -7.15251563
Br       5.78449893       1.96534055      -5.49732718
H        0.35299453       6.92900721      -2.59545628
H       -1.28578538       7.59486703      -4.37192297
H       -2.32704041       5.87401313      -5.82538065
H       -1.75192023       3.45087584      -5.53354870
H        3.22736156       0.21970629      -2.18444081
H        1.98732468       0.35148093      -3.41491720
H        4.29253852       2.32412749      -2.97556010
H        3.07184485       2.50989246      -4.21998700
H        0.86728067       0.41002174      -8.59120343
H        0.23196565      -1.82862417      -9.52494261
H        1.23771241      -3.90276441      -8.60668533
H        2.90614253      -3.78198008      -6.73974631
C       -1.83230284      -1.83230284      -1.83230284
H       -1.12838332      -2.28380870      -2.54021554
N       -2.78420840      -1.01738866      -2.55276164
C       -3.86403126      -0.37937834      -2.00432120
O       -4.23564656      -0.34287503      -0.84695506
C       -4.56085592       0.27980966      -3.10767725
C       -3.85949844       0.00747454      -4.26774557
C       -2.71844043      -0.82801491      -3.90567586
O       -1.91054057      -1.26627182      -4.70190355
C       -4.27230048       0.47112942      -5.50128809
C       -5.44226100       1.23576092      -5.53523286
C       -6.15896808       1.51407144      -4.35229524
C       -5.71798772       1.03290530      -3.11498903
C       -2.46390230      -2.93160247      -0.97298654
C       -3.30356469      -3.90773483      -1.81149985
C       -3.92027107      -5.01376323      -0.95189351
H       -3.12134996      -5.59633481      -0.48009704
N       -4.83732946      -4.54192188       0.06145377
C       -4.65836291      -4.80020740       1.39272103
O       -3.76478226      -5.41817474       1.93908633
C       -5.76290511      -4.15623794       2.09714596
C       -6.54882861      -3.52459047       1.15083618
C       -5.94138214      -3.76231869      -0.15854780
O       -6.37822063      -3.31535445      -1.20185734
C       -7.68293218      -2.81837757       1.50041138
C       -8.00845871      -2.76355155       2.86008614
C       -7.20297937      -3.40494220       3.82437888
C       -6.05970919      -4.11466030       3.44536509
Br      -4.81845760      -6.31250796      -2.11620110
H       -3.71526840       0.24175259      -6.40394221
H       -5.81033172       1.61603848      -6.48671139
H       -7.07148011       2.10543248      -4.40630574
H       -6.26471569       1.23117999      -2.19896862
H       -1.67276070      -3.49626950      -0.46247845
H       -3.08058600      -2.49238357      -0.18075324
H       -2.65850230      -4.35441924      -2.57930457
H       -4.08666142      -3.36364790      -2.35141499
H       -8.29200484      -2.32595138       0.74945038
H       -8.89328733      -2.21620466       3.18120789
H       -7.47510622      -3.34334579       4.87681867
H       -5.42910192      -4.61078150       4.17597466
C       -1.83230284       1.83230284       1.83230284
H       -1.70318745       1.41294201       2.83627810
N       -3.21550573       1.70692556       1.43192740
C       -3.76076872       2.20683389       0.28012819
O       -3.22897155       2.82118948      -0.62468438
C       -5.18571556       1.88223766       0.32077030
C       -5.42533570       1.19691357       1.49752019
C       -4.15531900       1.08775039       2.20906181
O       -4.02271505       0.55962572       3.29637516
C       -6.68806538       0.76362580       1.85076796
C       -7.73030435       1.04805089       0.96337770
C       -7.48715774       1.74752437      -0.23749023
C       -6.19762458       2.17435219      -0.57190531
C       -1.29457956       3.26619656       1.80771520
C       -2.08799463       4.19540749       2.73939724
C       -1.53810171       5.62367011       2.72415599
H       -0.50129892       5.61839382       3.07808907
N       -1.60562085       6.27639145       1.43578527
C       -0.49766152       6.76701258       0.80117518
O        0.66347250       6.74535791       1.16198526
C       -0.95502465       7.33179887      -0.46482642
C       -2.32225293       7.13808640      -0.53775642
C       -2.73626429       6.44424471       0.68173963
O       -3.87982029       6.10157961       0.91403253
C       -3.06088961       7.56407861      -1.62406985
C       -2.36755704       8.20253303      -2.65816595
C       -0.97208091       8.39530882      -2.58384704
C       -0.24629917       7.95556775      -1.47286252
Br      -2.48374419       6.69490975       4.06851272
H       -6.86130902       0.23410423       2.78204476
H       -8.74428665       0.73280394       1.20391403
H       -8.31710076       1.96346454      -0.90821194
H       -5.99820033       2.72164354      -1.48733956
H       -0.24250911       3.26740745       2.12159210
H       -1.30528396       3.66237578       0.78606307
H       -2.03965496       3.79295318       3.75961797
H       -3.14794286       4.19237706       2.46140440
H       -4.13339016       7.40619088      -1.67107521
H       -2.90973898       8.55339068      -3.53484557
H       -0.45496823       8.89068122      -3.40401612
H        0.82766790       8.09445050      -1.40287384
C        1.83230284      -1.83230284       1.83230284
H        2.83058499      -1.39264571       1.72917686
N        1.84650734      -3.18492965       1.32292171
C        0.80230765      -4.06843718       1.37698598
O       -0.31744832      -3.91650576       1.82641921
C        1.28414510      -5.31673071       0.78784771
C        2.59753120      -5.11852345       0.40371481
C        2.95479407      -3.74633381       0.75100332
O        4.05311422      -3.25744904       0.56815268
C        3.35344148      -6.12075339      -0.17173572
C        2.73414686      -7.36095665      -0.35337057
C        1.39418689      -7.56455807       0.03844693
C        0.65026913      -6.53148255       0.61831978
C        1.37111970      -1.70970556       3.28766605
C        2.26677297      -2.51047161       4.24555479
C        1.81234130      -2.37299222       5.70059428
H        1.87288694      -1.32177082       6.00312406
N        0.48168959      -2.87497908       5.96112889
C       -0.51022769      -2.09177716       6.48429980
O       -0.47267913      -0.91767438       6.79887542
C       -1.69863658      -2.93318641       6.58744727
C       -1.36606066      -4.18512860       6.10351497
C        0.03543994      -4.14014482       5.68666387
O        0.62720188      -5.07900993       5.18922061
C       -2.28220965      -5.21776798       6.06534003
C       -3.57142628      -4.94670133       6.53664906
C       -3.90996523      -3.66761234       7.02589558
C       -2.96433882      -2.63835897       7.05498425
Br       3.10769725      -3.26954091       6.86992849
H        4.38586998      -5.95184411      -0.46025606
H        3.29377519      -8.18329318      -0.79606374
H        0.93705003      -8.54194196      -0.10663863
H       -0.37781968      -6.67715315       0.93317084
H        1.38855446      -0.65408119       3.58887300
H        0.32967649      -2.03532830       3.38871802
H        3.29821708      -2.14802936       4.14597967
H        2.28560232      -3.56563134       3.95049066
H       -2.01048853      -6.19616058       5.68283379
H       -4.32648646      -5.73114007       6.52363048
H       -4.92154191      -3.48060434       7.38257090
H       -3.21087247      -1.64881928       7.42596196
C       -0.00445707       0.01189536      -1.78238275
H       -0.66409135       0.67374010      -2.43557963
H        0.65740317      -0.63156657      -2.45157240
C       -0.90989263      -0.90692880      -0.91072765
C        0.90977584       0.90977584      -0.90977584
C       -0.00465871       1.77757030       0.00794375
H       -0.66225468       2.44313916      -0.64384735
H        0.64322798       2.43503045       0.67728295
C       -1.78241447       0.00034974      -0.00472694
H       -2.45427497      -0.65498947       0.64260836
H       -2.43311707       0.67328779      -0.65473579
C       -0.91132561       0.90220522       0.91563759
C       -0.01476271      -0.02253852       1.78660255
H       -0.67934791      -0.69751639       2.42135241
H        0.63392994       0.61504881       2.47327442
C        0.01484550      -1.77751727      -0.01636693
H        0.67870853      -2.42144646      -0.68295456
H       -0.62264859      -2.45592969       0.64226336
C        1.78714474       0.01002794       0.00389507
H        2.44202412       0.67113390       0.66197326
H        2.45385902      -0.65136977      -0.64189061
C        0.91606151      -0.90478549       0.90901405
