194
Properties=species:S:1:pos:R:3 pbc="F F F"
C        1.83230284       1.83230284      -1.83230284
H        2.50529480       2.32519200      -1.12192076
N        1.02538662       2.82742569      -2.50154639
C        0.14275884       2.58544874      -3.51952323
O       -0.15729243       1.53297250      -4.04979658
C       -0.40521972       3.88319782      -3.91074543
C        0.17457259       4.84319709      -3.10199979
C        1.09465712       4.15925181      -2.19822227
O        1.78643897       4.72128371      -1.37099326
C       -0.11684083       6.18671247      -3.23258750
C       -1.03146288       6.54619330      -4.22700252
C       -1.62350588       5.56763488      -5.05306289
C       -1.31147320       4.21273539      -4.89880925
C        2.65030079       0.94387787      -2.77431266
C        3.62239323       1.76171041      -3.63869573
C        4.44913920       0.86930352      -4.56748508
H        5.05174526       0.17863944      -3.96739711
N        3.66909609       0.12098183      -5.52771966
C        3.70784041      -1.24428395      -5.60229281
O        4.34580280      -2.02982062      -4.92788850
C        2.78761278      -1.63251341      -6.66689773
C        2.22463075      -0.47555360      -7.17350576
C        2.78339143       0.65171119      -6.42714600
O        2.47033526       1.81212703      -6.61297013
C        1.30324656      -0.50413631      -8.20178811
C        0.95599407      -1.75874743      -8.71467748
C        1.52817922      -2.93818130      -8.19354477
C        2.45965643      -2.88316767      -7.15251563
H        0.35299453       6.92900721      -2.59545628
H       -1.28578538       7.59486703      -4.37192297
H       -2.32704041       5.87401313      -5.82538065
H       -1.75192023       3.45087584      -5.53354870
H        3.22736156       0.21970629      -2.18444081
H        1.98732468       0.35148093      -3.41491720
H        4.29253852       2.32412749      -2.97556010
H        3.07184485       2.50989246      -4.21998700
H        0.86728067       0.41002174      -8.59120343
H        0.23196565      -1.82862417      -9.52494261
H        1.23771241      -3.90276441      -8.60668533
H        2.90614253      -3.78198008      -6.73974631
C        5.42926492       1.67377145      -5.24996946
C        6.25012021       2.34751334      -5.82155013
Br       7.57737378       3.43689699      -6.74574774
C       -1.83230284      -1.83230284      -1.83230284
H       -1.26527106      -2.76558183      -1.92155467
N       -1.98250777      -1.23287490      -3.13897603
C       -2.71412310      -0.11116000      -3.42244770
O       -3.35403454       0.60449449      -2.67593660
C       -2.61611721       0.09406006      -4.86666637
C       -1.82369238      -0.91607875      -5.37999834
C       -1.41966367      -1.76742357      -4.26504396
O       -0.73437465      -2.76551266      -4.37882863
C       -1.55126918      -1.02149478      -6.72969519
C       -2.11465461      -0.05679945      -7.57027888
C       -2.92364028       0.97421454      -7.04776614
C       -3.18295292       1.05858734      -5.67570587
C       -3.15316572      -2.10776130      -1.10756430
C       -4.06059927      -3.05785023      -1.90434987
C       -5.37276249      -3.34321526      -1.16995005
H       -5.15577993      -3.82949834      -0.21250354
N       -6.19697037      -2.17700273      -0.94382447
C       -6.58815660      -1.78441143       0.30671875
O       -6.33458896      -2.29173705       1.38245534
C       -7.38487263      -0.57319422       0.13606975
C       -7.42120439      -0.28540719      -1.21597133
C       -6.64217311      -1.31230103      -1.90777449
O       -6.45601030      -1.32992703      -3.10949510
C       -8.10215589       0.81021881      -1.70896129
C       -8.75770746       1.62655400      -0.78077065
C       -8.71581057       1.33371621       0.59855168
C       -8.02008770       0.21787904       1.07320426
H       -0.93411844      -1.82517204      -7.11816754
H       -1.93372853      -0.10443237      -8.64284372
H       -3.35706786       1.70894884      -7.72423435
H       -3.81119591       1.84040479      -5.26171319
H       -2.94556283      -2.55796720      -0.12797862
H       -3.68123132      -1.16963084      -0.90286065
H       -3.52064847      -3.99870634      -2.07287130
H       -4.26278805      -2.64138258      -2.89755369
H       -8.12346579       1.02692610      -2.77196614
H       -9.30565500       2.50230283      -1.12493192
H       -9.23016168       1.98736801       1.30116033
H       -7.97683385      -0.01850573       2.13143082
C       -6.11722168      -4.33807745      -1.89770670
C       -6.74070625      -5.17127454      -2.50720289
Br      -7.74882807      -6.51848375      -3.49270669
C       -1.83230284       1.83230284       1.83230284
H       -2.22449432       1.14122481       2.58668843
N       -2.92674864       2.37083437       1.05677568
C       -2.82113383       3.33539428       0.09120270
O       -1.83344314       3.91294045      -0.32090694
C       -4.17854630       3.59562748      -0.38545027
C       -5.03463942       2.76788712       0.31724292
C       -4.22483308       1.98303358       1.24426454
O       -4.67595070       1.17234940       2.03041584
C       -6.40089494       2.78451587       0.11704834
C       -6.89415874       3.68214364      -0.83456944
C       -6.02170987       4.52748093      -1.55199892
C       -4.64097916       4.48959889      -1.33050660
C       -0.96160270       2.89040477       2.51648384
C       -1.77230304       3.76588298       3.48461334
C       -0.89607170       4.81174609       4.17811001
H       -0.12360143       4.30618983       4.76799054
N       -0.27541104       5.76102368       3.28136285
C        1.08013383       5.93144937       3.21453374
O        1.95487444       5.36103811       3.83770701
C        1.32526609       6.94964382       2.19761936
C        0.09843082       7.33320815       1.68780558
C       -0.93010395       6.55455306       2.37759162
O       -2.11972185       6.63707358       2.13863699
C       -0.01167895       8.29057889       0.69864053
C        1.17517427       8.86118788       0.22591050
C        2.42606643       8.46538538       0.74422373
C        2.51150532       7.49426569       1.74624403
H       -7.06050864       2.13433805       0.68261133
H       -7.96557708       3.73592403      -1.02049649
H       -6.43138821       5.22326919      -2.28230403
H       -3.95971362       5.14089376      -1.86810307
H       -0.15829177       2.39542867       3.07778822
H       -0.46459574       3.51959951       1.76952757
H       -2.23733627       3.11684809       4.23804174
H       -2.59705954       4.25262684       2.95203794
H       -0.97964296       8.58347891       0.30538396
H        1.13566213       9.61896226      -0.55501604
H        3.33556662       8.92108233       0.35611762
H        3.46663609       7.17785264       2.15269221
C       -1.67956521       5.50774825       5.16569237
C       -2.33574102       6.09065007       5.99279260
Br      -3.39672180       7.03315300       7.33014371
C        1.83230284      -1.83230284       1.83230284
H        2.35013256      -1.11907796       2.48319704
N        2.80028182      -2.53406505       1.02001183
C        2.52390970      -3.56314937       0.16067174
O        1.45674729      -4.07936813      -0.11063877
C        3.80415820      -3.98786734      -0.40330203
C        4.78900627      -3.18654291       0.14422028
C        4.13839335      -2.25398794       1.05974992
O        4.72778875      -1.42488306       1.72604412
C        6.12439284      -3.34693597      -0.16886966
C        6.44911808      -4.36405763      -1.07144277
C        5.44518119      -5.18257150      -1.63056080
C        4.09921758      -4.99794097      -1.29708709
C        0.94220972      -2.74301795       2.68326364
C        1.76203035      -3.60461118       3.65615784
C        0.86835462      -4.50187990       4.51569328
H        0.19974823      -3.87850148       5.11953210
N        0.08872204      -5.46212201       3.76695353
C       -1.27672550      -5.51096833       3.83160644
O       -2.03818901      -4.81092450       4.47113518
C       -1.70082923      -6.58466295       2.93816338
C       -0.56367372      -7.12241997       2.36383665
C        0.58687748      -6.38690268       2.88846847
O        1.73783497      -6.59954966       2.55804779
C       -0.62761712      -8.16641189       1.46210359
C       -1.89739965      -8.66239916       1.14692460
C       -3.05659202      -8.10954510       1.73058961
C       -2.96581229      -7.05311317       2.64170352
H        6.88650757      -2.71515973       0.27579072
H        7.49018170      -4.53271143      -1.34188851
H        5.72468213      -5.97289990      -2.32522866
H        3.31812576      -5.62643930      -1.71206075
H        0.23945525      -2.12969803       3.26235538
H        0.32634347      -3.38448561       2.04289373
H        2.34846316      -2.93994181       4.30382114
H        2.48942729      -4.20931626       3.10298077
H        0.27125081      -8.58028330       1.01697172
H       -1.99508759      -9.48413976       0.43923191
H       -4.03360799      -8.51010708       1.46513424
H       -3.84872692      -6.61598730       3.09664839
C        1.67823378      -5.18124512       5.49352693
C        2.35650757      -5.75021350       6.31246261
Br       3.45321892      -6.67018723       7.63661235
C       -0.00445707       0.01189536      -1.78238275
H       -0.66409135       0.67374010      -2.43557963
H        0.65740317      -0.63156657      -2.45157240
C       -0.90989263      -0.90692880      -0.91072765
C        0.90977584       0.90977584      -0.90977584
C       -0.00465871       1.77757030       0.00794375
H       -0.66225468       2.44313916      -0.64384735
H        0.64322798       2.43503045       0.67728295
C       -1.78241447       0.00034974      -0.00472694
H       -2.45427497      -0.65498947       0.64260836
H       -2.43311707       0.67328779      -0.65473579
C       -0.91132561       0.90220522       0.91563759
C       -0.01476271      -0.02253852       1.78660255
H       -0.67934791      -0.69751639       2.42135241
H        0.63392994       0.61504881       2.47327442
C        0.01484550      -1.77751727      -0.01636693
H        0.67870853      -2.42144646      -0.68295456
H       -0.62264859      -2.45592969       0.64226336
C        1.78714474       0.01002794       0.00389507
H        2.44202412       0.67113390       0.66197326
H        2.45385902      -0.65136977      -0.64189061
C        0.91606151      -0.90478549       0.90901405
