74
Properties=species:S:1:pos:R:3 pbc="F F F"
C        1.79187764       1.79187764      -1.79187764
C        1.49893131       3.14434715      -1.95206719
F        0.44048047       3.68960287      -1.33552275
C        2.30374831       3.94819654      -2.75628610
F        1.99773285       5.24746795      -2.89233342
C        3.40920605       3.41011992      -3.40874267
C        3.70216837       2.05788628      -3.24880749
F        4.76063355       1.51239927      -3.86528559
C        2.89736557       1.25376492      -2.44456154
F        3.20329006      -0.04540916      -2.30856376
C        4.24094525       4.24161344      -4.23966291
C        4.93752683       4.93798926      -4.93555860
Br       6.06384032       6.06397006      -6.06076309
C       -1.79187764      -1.79187764      -1.79187764
C       -3.07608177      -1.37924253      -2.14002136
F       -3.55492395      -0.20434973      -1.70633240
C       -3.87981462      -2.18385520      -2.94456113
F       -5.11247519      -1.76105185      -3.26400718
C       -3.40974416      -3.40854723      -3.40977726
C       -2.12585080      -3.82132965      -3.06168170
F       -1.64678136      -4.99624385      -3.49529321
C       -1.32187560      -3.01678311      -2.25703331
F       -0.08934643      -3.43955523      -1.93754300
C       -4.24089289      -4.23968192      -4.24164678
C       -4.93697996      -4.93575723      -4.93833750
Br      -6.06249387      -6.06125213      -6.06482748
C       -1.79187764       1.79187764       1.79187764
C       -3.07617421       1.37935631       2.13981514
F       -3.55510645       0.20457443       1.70592520
C       -3.87990705       2.18396889       2.94435502
F       -5.11265781       1.76127654       3.26359987
C       -3.40974431       3.40854722       3.40977711
C       -2.12575849       3.82121590       3.06188775
F       -1.64659898       4.99601916       3.49570027
C       -1.32178329       3.01666944       2.25723930
F       -0.08916392       3.43933058       1.93795015
C       -4.24089313       4.23968183       4.24164663
C       -4.93698027       4.93575706       4.93833736
Br      -6.06249430       6.06125184       6.06482733
C        1.79187764      -1.79187764       1.79187764
C        1.22354244      -2.78359861       2.58820460
F       -0.10320719      -2.97717722       2.59163606
C        2.02838031      -3.58775450       3.39209615
F        1.45368295      -4.53508166       4.14876961
C        3.40874891      -3.41012301       3.40919673
C        3.97713895      -2.41853910       2.61318409
F        5.30393848      -2.22478677       2.60959317
C        3.17237915      -1.61416329       1.80914958
F        3.74699174      -0.66686696       1.05258595
C        4.24020961      -4.24188415       4.24012783
C        4.93655795      -4.93848411       4.93603263
Br       6.06249432      -6.06482732       6.06125183
C       -0.00445707       0.01189536      -1.78238275
H       -0.66409135       0.67374010      -2.43557963
H        0.65740317      -0.63156657      -2.45157240
C       -0.90989263      -0.90692880      -0.91072765
C        0.90977584       0.90977584      -0.90977584
C       -0.00465871       1.77757030       0.00794375
H       -0.66225468       2.44313916      -0.64384735
H        0.64322798       2.43503045       0.67728295
C       -1.78241447       0.00034974      -0.00472694
H       -2.45427497      -0.65498947       0.64260836
H       -2.43311707       0.67328779      -0.65473579
C       -0.91132561       0.90220522       0.91563759
C       -0.01476271      -0.02253852       1.78660255
H       -0.67934791      -0.69751639       2.42135241
H        0.63392994       0.61504881       2.47327442
C        0.01484550      -1.77751727      -0.01636693
H        0.67870853      -2.42144646      -0.68295456
H       -0.62264859      -2.45592969       0.64226336
C        1.78714474       0.01002794       0.00389507
H        2.44202412       0.67113390       0.66197326
H        2.45385902      -0.65136977      -0.64189061
C        0.91606151      -0.90478549       0.90901405
