146
Properties=species:S:1:pos:R:3 pbc="F F F"
C        1.82336103       1.82336103      -1.82336103
C        2.12101087       1.17026236      -3.15532951
C        3.04237067      -0.04712943      -3.22283715
N        3.15672657      -0.78713976      -4.28816908
N        2.50014560      -0.46491385      -5.43838868
C        2.52425817      -1.37176565      -6.49524551
O        3.03055666      -2.48978729      -6.42442514
C        1.89030378      -0.95604841      -7.78411482
C        1.24053644       0.26209923      -7.98288918
C        0.70167845       0.52088560      -9.23501060
N        0.76401935      -0.33797188     -10.27433923
C        1.39439590      -1.51354597     -10.06081219
C        1.96146731      -1.86138241      -8.85187849
C        3.90159083      -0.48662845      -2.04047998
C        4.99602101       0.46381825      -1.60396417
H        2.70670644       2.08547608      -1.24392138
H        1.24119581       2.73640780      -1.97817340
H        2.57208494       1.92631706      -3.80789054
H        1.16690419       0.88186445      -3.61546368
H        2.10398898       0.45521904      -5.53514633
H        1.13385030       1.01552520      -7.21378385
H        0.18838973       1.45493536      -9.44361556
H        1.42619994      -2.18415857     -10.91276332
H        2.45351899      -2.82349052      -8.74486105
H        4.36847351      -1.44306886      -2.31034719
H        3.24636422      -0.71112403      -1.19452814
H        5.63383340      -0.01033504      -0.85256282
H        4.62120550       1.39774477      -1.18251990
C        5.86705811       0.83786230      -2.68793161
C        6.59655168       1.15112419      -3.59575435
Br       7.77608109       1.65764216      -5.06362693
C       -1.82336103      -1.82336103      -1.82336103
C       -2.61341396      -1.00893125      -2.82425754
C       -3.75610991      -0.11162868      -2.35033980
N       -4.31894616       0.77797726      -3.11678699
N       -3.95567985       0.90632409      -4.42426467
C       -4.46750827       1.97543373      -5.15566349
O       -5.16179051       2.86568029      -4.66908429
C       -4.14398334       2.03973476      -6.61412161
C       -3.32956020       1.12322137      -7.27918601
C       -3.11851130       1.30002852      -8.63909187
N       -3.65093304       2.30979485      -9.35924852
C       -4.43395150       3.18869209      -8.69640271
C       -4.70256826       3.09665396      -7.34604910
C       -4.32528837      -0.19357106      -0.93658293
C       -5.02400473      -1.48198237      -0.55781633
H       -2.43247260      -2.43931405      -1.16431726
H       -1.12548542      -2.48255808      -2.34773350
H       -3.05514458      -1.70222061      -3.54892734
H       -1.91046175      -0.37427638      -3.37949419
H       -3.41422132       0.17619153      -4.85632456
H       -2.85357281       0.28253263      -6.79211917
H       -2.49558920       0.61352875      -9.20488020
H       -4.84514732       3.99051987      -9.30017725
H       -5.33994602       3.83715169      -6.87209520
H       -5.04291665       0.62956851      -0.82240370
H       -3.52441538       0.01750430      -0.22285726
H       -5.51346753      -1.37724089       0.41464723
H       -4.35515203      -2.34225409      -0.50406405
C       -6.06110547      -1.84207396      -1.48967259
C       -6.92967734      -2.14365065      -2.27010222
Br      -8.33408460      -2.63127467      -3.53199091
C       -1.82336103       1.82336103       1.82336103
C       -1.97808815       3.21600608       1.25250851
C       -0.79110933       4.17859019       1.24837886
N       -0.78911632       5.29331702       0.57532255
N       -1.89293597       5.69617414      -0.11548969
C       -1.78830692       6.80768709      -0.94825598
O       -0.73347080       7.39963258      -1.16790887
C       -3.03389706       7.29861243      -1.61413930
C       -4.28324366       6.69113480      -1.48885362
C       -5.35794339       7.25823460      -2.15860334
N       -5.26765600       8.36236022      -2.92962951
C       -4.04870991       8.93394671      -3.04099450
C       -2.92134019       8.44437297      -2.41374977
C        0.48557861       3.90301387       2.03800710
C        0.36086114       3.87818099       3.54648357
H       -1.41186370       1.79363539       2.83060482
H       -2.79382192       1.31901975       1.84293534
H       -2.77459740       3.72191567       1.80977946
H       -2.32542276       3.12362489       0.21518467
H       -2.77604424       5.24983123       0.06847888
H       -4.45939017       5.80195538      -0.89818620
H       -6.35235125       6.82676034      -2.09217094
H       -4.00637587       9.81737251      -3.66894368
H       -1.96950246       8.95034598      -2.54495891
H        1.21323369       4.68001149       1.76897403
H        0.91995223       2.96330086       1.68641971
H        1.35025344       3.81759497       4.00871965
H       -0.23473113       3.04475871       3.92198033
C       -0.25133924       5.07203527       4.06947751
C       -0.76405705       6.07188823       4.50748493
Br      -1.59307840       7.68856591       5.21570588
C        1.82336103      -1.82336103       1.82336103
C        2.00544854      -3.20560407       1.23555014
C        0.83223841      -4.18433926       1.20150073
N        0.85515527      -5.28945108       0.51314954
N        1.97394562      -5.66730818      -0.16763338
C        1.89640729      -6.76838751      -1.01705677
O        0.85310004      -7.37171195      -1.25961748
C        3.15782985      -7.23268674      -1.67214640
C        4.39669586      -6.60982478      -1.52099579
C        5.48838138      -7.15259000      -2.18339674
N        5.42422568      -8.24695007      -2.97078904
C        4.21505933      -8.83370291      -3.10710011
C        3.07238695      -8.36858091      -2.48900447
C       -0.45896899      -3.93751009       1.97690126
C       -0.35545932      -3.93208710       3.48717565
H        1.39761440      -1.81343243       2.82505707
H        2.78629995      -1.30598698       1.86349007
H        2.80119213      -3.70821911       1.79688130
H        2.36575010      -3.09391441       0.20456781
H        2.84809046      -5.21143035       0.03483354
H        4.55219581      -5.72665728      -0.91569374
H        6.47563599      -6.70839440      -2.09708975
H        4.19378032      -9.70874743      -3.74772306
H        2.12963239      -8.88576558      -2.64050844
H       -1.17188460      -4.72064003       1.68699640
H       -0.90156389      -2.99905436       1.63227787
H       -1.35189340      -3.89165289       3.93630169
H        0.22315822      -3.09585866       3.88245329
C        0.26611987      -5.12457941       4.00215274
C        0.78669245      -6.12329171       4.43344605
Br       1.62841428      -7.73812504       5.13081085
C       -0.00445707       0.01189536      -1.78238275
H       -0.66409135       0.67374010      -2.43557963
H        0.65740317      -0.63156657      -2.45157240
C       -0.90989263      -0.90692880      -0.91072765
C        0.90977584       0.90977584      -0.90977584
C       -0.00465871       1.77757030       0.00794375
H       -0.66225468       2.44313916      -0.64384735
H        0.64322798       2.43503045       0.67728295
C       -1.78241447       0.00034974      -0.00472694
H       -2.45427497      -0.65498947       0.64260836
H       -2.43311707       0.67328779      -0.65473579
C       -0.91132561       0.90220522       0.91563759
C       -0.01476271      -0.02253852       1.78660255
H       -0.67934791      -0.69751639       2.42135241
H        0.63392994       0.61504881       2.47327442
C        0.01484550      -1.77751727      -0.01636693
H        0.67870853      -2.42144646      -0.68295456
H       -0.62264859      -2.45592969       0.64226336
C        1.78714474       0.01002794       0.00389507
H        2.44202412       0.67113390       0.66197326
H        2.45385902      -0.65136977      -0.64189061
C        0.91606151      -0.90478549       0.90901405
