114
Properties=species:S:1:pos:R:3 pbc="F F F"
F        4.11269890       2.74884671      -6.08050744
C        4.59518161       3.89737469      -5.58122332
C        4.27060425       4.27073332      -4.27082679
C        3.42419323       3.42461722      -3.42457152
C        3.86992904       2.17989278      -2.96200841
F        5.10110484       1.75572134      -3.28656981
C        3.06670262       1.37238371      -2.15607169
F        3.54338548       0.19120827      -1.73690071
C        1.79182634       1.79182634      -1.79182634
C        1.33019326       3.02471212      -2.24091969
C        2.13775767       3.82802341      -3.04593773
F        1.66097627       5.00659029      -3.47574512
F        0.10371313       3.45663203      -1.91054722
C        4.78715777       5.48531200      -3.80234591
F        4.51513947       5.87907302      -2.54780378
C        5.59273440       6.29252614      -4.60497033
C        5.90310792       5.90336267      -5.90396707
C        5.40023048       4.70098465      -6.38907205
F        5.67745886       4.29858653      -7.63816230
F        6.06532131       7.44415410      -4.10591983
C        6.73448193       6.73468432      -6.73542456
C        7.43075768       7.43091619      -7.43177021
Br       8.55657666       8.55666426      -8.55770224
F       -3.12232541      -6.22906429      -3.59066335
C       -4.08489105      -5.65776734      -4.33112123
C       -4.27076825      -4.27080219      -4.27059392
C       -3.42467132      -3.42449981      -3.42421084
C       -2.06738540      -3.23239146      -3.71205336
F       -1.53003660      -3.82223304      -4.79112635
C       -1.25952082      -2.42715047      -2.90848672
F        0.03291727      -2.27334912      -3.23106260
C       -1.79182634      -1.79182634      -1.79182634
C       -3.13758627      -1.96980923      -1.48842958
C       -3.94056947      -2.77551445      -2.29563489
F       -5.23230929      -2.94004217      -1.97096022
F       -3.68079849      -1.37398142      -0.41611246
C       -5.29799812      -3.72571943      -5.05109814
F       -5.50567352      -2.39922285      -5.03711992
C       -6.10466248      -4.52818069      -5.85738770
C       -5.90350381      -5.90390769      -5.90302616
C       -4.88901947      -6.46575413      -5.13551357
F       -4.67123106      -7.78909732      -5.15387932
F       -7.07173443      -3.95495702      -6.58870380
C       -6.73484115      -6.73537068      -6.73437898
C       -7.43108618      -7.43172094      -7.43063696
Br      -8.55685551      -8.55766041      -8.55642724
F       -4.38039357       5.95477222       2.60688726
C       -4.71915076       5.52299546       3.83163340
C       -4.27083460       4.27071860       4.27061116
C       -3.42472927       3.42431975       3.42433295
C       -2.10851324       3.78933906       3.11397793
F       -1.60358791       4.92934089       3.61046719
C       -1.30056710       2.98561917       2.30897175
F       -0.04610619       3.37956017       2.04582809
C       -1.79182634       1.79182634       1.79182634
C       -3.09652972       1.41127783       2.08801753
C       -3.89949780       2.21845474       2.89376626
F       -5.15880225       1.83282888       3.15168056
F       -3.60173470       0.26753911       1.60161856
C       -4.66420316       3.86009725       5.55051528
F       -4.24779802       2.67337310       6.02084516
C       -5.46908961       4.66304585       6.35809542
C       -5.90382522       5.90363016       5.90298228
C       -5.52493476       6.33049889       4.63485351
F       -5.93010200       7.51949673       4.16460896
F       -5.81346462       4.22421601       7.57771461
C       -6.73521447       6.73508050       6.73429585
C       -7.43150296       7.43142016       7.43052097
Br      -8.55734256       8.55734249       8.55625809
F        5.95488431      -2.60698679       4.38018195
C        5.52305155      -3.83168421       4.71904385
C        4.27071861      -4.27061116       4.27083459
C        3.42431977      -3.42433293       3.42472927
C        3.78927549      -3.11408418       2.10847055
F        4.92921403      -3.61067741       1.60350456
C        2.98555542      -2.30907826       1.30052434
F        3.37943376      -2.04603880       0.04602189
C        1.79182634      -1.79182634       1.79182634
C        1.41134159      -2.08791100       3.09657249
C        2.21851832      -2.89366000       3.89954048
F        1.83295576      -3.15147032       5.15888560
F        0.26766554      -1.60140781       3.60181902
C        3.86004123      -5.55046445       4.66431001
F        2.67326103      -6.02074563       4.24800962
C        4.66298966      -6.35804446       5.46919675
C        5.90363021      -5.90298227       5.90382518
C        6.33055515      -4.63490444       5.52482758
F        7.51960832      -4.16470944       5.92988993
F        4.22410450      -7.57761415       5.81367660
C        6.73508055      -6.73429584       6.73521442
C        7.43142022      -7.43052096       7.43150290
Br       8.55734256      -8.55625809       8.55734250
C       -0.00445707       0.01189536      -1.78238275
H       -0.66409135       0.67374010      -2.43557963
H        0.65740317      -0.63156657      -2.45157240
C       -0.90989263      -0.90692880      -0.91072765
C        0.90977584       0.90977584      -0.90977584
C       -0.00465871       1.77757030       0.00794375
H       -0.66225468       2.44313916      -0.64384735
H        0.64322798       2.43503045       0.67728295
C       -1.78241447       0.00034974      -0.00472694
H       -2.45427497      -0.65498947       0.64260836
H       -2.43311707       0.67328779      -0.65473579
C       -0.91132561       0.90220522       0.91563759
C       -0.01476271      -0.02253852       1.78660255
H       -0.67934791      -0.69751639       2.42135241
H        0.63392994       0.61504881       2.47327442
C        0.01484550      -1.77751727      -0.01636693
H        0.67870853      -2.42144646      -0.68295456
H       -0.62264859      -2.45592969       0.64226336
C        1.78714474       0.01002794       0.00389507
H        2.44202412       0.67113390       0.66197326
H        2.45385902      -0.65136977      -0.64189061
C        0.91606151      -0.90478549       0.90901405
