197
Properties=species:S:1:pos:R:3 pbc="F F F"
C        0.00000000       0.00000000       0.00000000
C       -5.07059465      12.13663006       1.01232501
C       -5.43315251      11.37048652       2.27511233
C       -6.30465452      10.13871175       2.01623509
C       -5.69932980       9.08070095       1.08764103
C       -4.40070756       8.47437964       1.62312208
C       -3.86138627       7.39730529       0.67998938
C       -2.55669617       6.79550989       1.20696093
C       -2.00882172       5.74239389       0.24310060
C       -0.62743281       5.23708232       0.67942179
C       -0.10585349       4.09819616      -0.20418935
N       -0.01702261       4.49306468      -1.60413068
C        0.50621970       3.91989612      -2.71745317
S        0.71711669       5.01899744      -3.97541434
N        0.82903004       2.57728839      -2.76176031
C        0.07671241       1.56354419      -2.00550297
C        0.91418503       0.91418503      -0.91418503
C        1.62798965       2.02476457      -3.88890998
C        3.09483619       2.45138849      -3.87578900
Br       3.69620049       2.92408270      -5.67154832
H       -4.53426690      13.05520275       1.27125438
H       -5.96758093      12.41504258       0.45036737
H       -4.42011722      11.54802836       0.35860827
H       -5.98065509      12.04392475       2.94543384
H       -4.51795901      11.08666535       2.80600099
H       -7.26030789      10.46640863       1.58859568
H       -6.54264049       9.67230454       2.98009138
H       -5.53073609       9.50733456       0.09267057
H       -6.43825365       8.28047178       0.95694766
H       -4.57919897       8.03990504       2.61436161
H       -3.64063890       9.25487606       1.74138310
H       -3.68745261       7.83729329      -0.31048293
H       -4.60968391       6.60539417       0.55400632
H       -2.72858416       6.34034996       2.18917322
H       -1.81598931       7.59245825       1.34242051
H       -1.94237948       6.18100830      -0.75942500
H       -2.71061312       4.90178111       0.17986105
H       -0.67892734       4.87941204       1.71545211
H        0.08512502       6.06988775       0.66124169
H       -0.78217232       3.24988255      -0.10031540
H        0.89191502       3.79758095       0.12622339
H       -0.13885202       5.48388116      -1.76541802
H       -0.26667708       0.79797171      -2.71358868
H       -0.85138814       1.99473422      -1.62598517
H        1.38876783       1.64112293      -0.25218395
H        1.69076645       0.26638932      -1.32936719
H        1.10792249       2.26977463      -4.82195753
H        1.61044293       0.92902485      -3.82127199
H        3.73889039       1.61791959      -3.57537229
H        3.30774702       3.30718418      -3.23151874
C      -11.26977047       6.69594842      -1.47988833
C      -10.16178546       7.69945590      -1.19989212
C       -9.49492060       7.51175702       0.16534144
C       -8.84262123       6.14572709       0.40316401
C       -7.70926077       5.83529842      -0.57658766
C       -7.06678689       4.48110523      -0.27024797
C       -5.93929208       4.16209671      -1.25465742
C       -5.32384299       2.79360082      -0.96022939
C       -4.29601255       2.39192999      -2.02614516
C       -3.57982715       1.07779061      -1.69449549
N       -4.51664838      -0.02719661      -1.53632776
C       -4.38051141      -1.36986914      -1.39318843
S       -5.81167885      -2.20338706      -1.69646256
N       -3.17321593      -1.94638871      -1.04847411
C       -2.19860744      -1.26745017      -0.17970196
C       -0.91418503      -0.91418503      -0.91418503
C       -2.97981856      -3.41870712      -1.14313853
C       -2.90340993      -3.94237225      -2.57623148
Br      -3.93357218      -5.58898399      -2.76927534
H      -11.77075958       6.94258605      -2.42150792
H      -12.02060505       6.70714768      -0.68363691
H      -10.87651753       5.67919387      -1.57197920
H      -10.58891683       8.70878160      -1.23770059
H       -9.41502390       7.65227138      -1.99995283
H      -10.24411337       7.67710946       0.94949884
H       -8.73770272       8.29501033       0.29311971
H       -9.60064654       5.35577698       0.36094166
H       -8.44320799       6.13312475       1.42481277
H       -6.94920387       6.62425366      -0.52139425
H       -8.09141823       5.82211165      -1.60354748
H       -7.83248654       3.69646522      -0.32430229
H       -6.67502129       4.47913370       0.75418365
H       -5.16391042       4.93439749      -1.19307964
H       -6.33327053       4.17695472      -2.27773262
H       -6.12534440       2.04674879      -0.91945820
H       -4.84912468       2.80934346       0.02847428
H       -3.54333039       3.18406818      -2.12577039
H       -4.79761538       2.30037400      -2.99652970
H       -3.01595848       1.22077780      -0.77284493
H       -2.88486204       0.81942456      -2.49783511
H       -5.46072610       0.18226754      -1.83198861
H       -1.97213529      -1.93486885       0.66212082
H       -2.66389136      -0.40327536       0.29783547
H       -1.09030868      -0.35599616      -1.83576988
H       -0.32669019      -1.80383001      -1.15600276
H       -3.75883547      -3.89989790      -0.54092129
H       -2.03025976      -3.67524828      -0.65523173
H       -1.87624628      -4.22325057      -2.83268542
H       -3.27297872      -3.24361210      -3.32985912
C        7.42927696       3.00358711      10.47940024
C        8.36060703       2.70919610       9.31363262
C        8.24055201       1.27984008       8.77853407
C        6.85250159       0.87575886       8.27047286
C        6.36631724       1.72354132       7.09332593
C        4.99684831       1.25325773       6.59952021
C        4.50220998       2.10548706       5.42857571
C        3.11967817       1.64825283       4.96189691
C        2.54385482       2.58349428       3.89058827
C        1.21041818       2.08483039       3.32211981
N        0.20308187       1.92091672       4.36233790
C       -1.12836045       1.65819115       4.35701738
S       -1.86682560       2.01791038       5.82679249
N       -1.76805157       1.16297444       3.23705273
C       -1.09631281       0.26952284       2.27992391
C       -0.91418503       0.91418503       0.91418503
C       -3.25378687       1.12081412       3.16706322
C       -3.90609850       2.49452704       3.02138813
Br      -5.47455460       2.64370782       4.17356909
H        7.63173918       4.00252769      10.87889296
H        7.57127068       2.28008813      11.28827683
H        6.37989418       2.97812427      10.17107277
H        9.39391385       2.86600892       9.64574075
H        8.18288033       3.43392455       8.51166114
H        8.53439450       0.58067480       9.57122478
H        8.96817895       1.14965058       7.96810104
H        6.12582679       0.92053582       9.08921888
H        6.89766130      -0.17475638       7.95768814
H        7.09298241       1.66562698       6.27369989
H        6.29368972       2.77572330       7.39082048
H        4.27502423       1.31088727       7.42446057
H        5.05342634       0.20151323       6.29361705
H        5.21166276       2.03853705       4.59571828
H        4.45872444       3.15712231       5.73565056
H        2.44661925       1.61794782       5.82672525
H        3.18398548       0.62610667       4.56918576
H        3.26064067       2.68019448       3.06547878
H        2.40806676       3.58368737       4.31815047
H        1.38793861       1.13169811       2.82426612
H        0.82692717       2.80029162       2.58990813
H        0.46137800       2.31455344       5.25727172
H       -1.70311741      -0.64019980       2.18196571
H       -0.15863815      -0.09369399       2.70438709
H       -0.42692477       1.88982596       0.96532399
H       -1.86627237       1.03054934       0.38970125
H       -3.61545940       0.55260434       4.03159092
H       -3.54233300       0.53201989       2.28638688
H       -4.29064689       2.63594709       2.00558829
H       -3.24883275       3.33182666       3.26579053
C       12.34365446       4.11605839      -2.17388569
C       11.40455135       5.27608832      -2.46624135
C       10.42222270       4.99745849      -3.60694207
C        9.49361855       3.79547302      -3.40441541
C        8.57520812       3.93581339      -2.18884473
C        7.64261171       2.73034150      -2.05634058
C        6.72929443       2.86199863      -0.83544300
C        5.82262522       1.63889568      -0.69325797
C        5.00796870       1.68381673       0.60607575
C        4.00647649       0.52874927       0.71880481
N        4.66373232      -0.76988195       0.64655849
C        4.25458496      -2.04938380       0.83960022
S        5.53927098      -3.11596406       1.05629343
N        2.91580341      -2.38983568       0.86243965
C        1.91096597      -1.67858483       0.05620877
C        0.91418503      -0.91418503       0.91418503
C        2.48210766      -3.73668093       1.32287561
C        2.63840862      -3.95713787       2.82646719
Br       3.36529680      -5.73052513       3.19600958
H       13.08194119       4.41098281      -1.42127692
H       12.88296914       3.81009198      -3.07578288
H       11.80184356       3.24984066      -1.78270003
H       12.00690405       6.15134799      -2.73772025
H       10.86339264       5.54741201      -1.55327528
H       10.99100720       4.84151892      -4.53198321
H        9.81274535       5.89510405      -3.76806862
H       10.08320705       2.87553626      -3.32374288
H        8.87725840       3.68662412      -4.30536381
H        7.98054793       4.85287936      -2.28132411
H        9.17153756       4.02489124      -1.27379226
H        8.24320200       1.81591199      -1.96696640
H        7.03488498       2.62941232      -2.96376872
H        6.11547062       3.76544492      -0.92743313
H        7.34119465       2.97450107       0.06735485
H        6.44285508       0.73507139      -0.70972988
H        5.14692738       1.58030677      -1.55531367
H        4.45610932       2.63066726       0.65959054
H        5.69130377       1.66042827       1.46289558
H        3.28409793       0.62441402      -0.09165828
H        3.47684117       0.58693355       1.67336496
H        5.67225832      -0.72970657       0.70848227
H        1.38066750      -2.41998323      -0.55576742
H        2.40611900      -1.04540122      -0.68218897
H        1.39439754      -0.25118057       1.63649660
H        0.24393499      -1.58723527       1.45535270
H        3.00207345      -4.48436390       0.71321730
H        1.41603497      -3.85592123       1.08878357
H        1.66271031      -3.94540889       3.32406308
H        3.29128767      -3.23445228       3.32070999
