194
Properties=species:S:1:pos:R:3 pbc="F F F"
C        1.83673641       1.83673641      -1.83673641
H        2.38416170       1.14932679      -2.49199192
C        0.88931834       2.70655313      -2.65696821
C        1.67421976       3.75977518      -3.41762798
C        2.38833171       4.72530029      -2.44378975
H        1.57020790       5.27212540      -1.94941966
C        3.09336360       3.99534998      -1.29598593
C        2.83288516       2.63069230      -1.01674893
C        3.58612605       1.98808286      -0.01169678
C        4.50187476       2.68755316       0.77097400
C        4.69300190       4.04267104       0.55529266
C        3.99491196       4.68785926      -0.46468485
C        3.21711992       5.77937696      -3.28514313
H        2.80516841       5.78071067      -4.30642858
C        2.91356769       7.19567052      -2.74414643
C        3.72052837       8.24503605      -3.48640608
C        5.21100853       8.02443372      -3.24840328
H        5.48279408       8.32964155      -2.23124555
C        5.65279970       6.59148636      -3.46545422
C        4.71493608       5.52937995      -3.48911454
C        5.18598642       4.22695857      -3.74363606
C        6.54654948       3.95487132      -3.88112119
C        7.46947771       4.98206669      -3.77020790
C        7.02694772       6.28548559      -3.55776922
H        0.32285921       2.08592034      -3.36237726
H        0.14960033       3.20526225      -2.01590361
H        0.98389088       4.32862911      -4.05327852
H        2.38172676       3.26568042      -4.09107834
H        3.46279635       0.92367613       0.17965089
H        5.05925037       2.17359000       1.54919157
H        5.39897634       4.59873470       1.16632920
H        4.19646016       5.74358344      -0.61119750
H        1.84522044       7.41196535      -2.87086523
H        3.12119659       7.27317597      -1.67208933
H        3.42791238       9.24596149      -3.14558003
H        3.47556476       8.19495697      -4.55614139
H        4.50360909       3.38662522      -3.81285783
H        6.88160581       2.93599094      -4.05547301
H        8.53241035       4.77331826      -3.85325072
H        7.77757355       7.06866469      -3.46977251
C        5.89988827       8.93420256      -4.12667737
C        6.47682505       9.69613396      -4.86223192
Br       7.40968303      10.92811259      -6.05156141
C       -1.83673641      -1.83673641      -1.83673641
H       -2.40185252      -2.47550352      -1.14812436
C       -2.78011986      -0.89468327      -2.57803655
C       -3.56037026      -1.65967794      -3.63157473
C       -2.61310165      -2.23429729      -4.71002282
H       -2.21618415      -1.34735000      -5.22821881
C       -1.37030504      -2.90192929      -4.11246518
C       -1.01103424      -2.71476980      -2.75452235
C        0.08663736      -3.43482478      -2.23771826
C        0.87662558      -4.24195308      -3.05312642
C        0.57659871      -4.35613653      -4.40084245
C       -0.53238167      -3.69186916      -4.92320525
C       -3.47074142      -3.04876012      -5.76213847
H       -4.51494836      -2.71286129      -5.66449801
C       -3.05571891      -2.61165714      -7.18600859
C       -3.81588814      -3.39752785      -8.23855451
C       -3.46224360      -4.87830577      -8.14329617
H       -2.45386865      -5.05429684      -8.53551569
C       -3.54435997      -5.43058463      -6.73479567
C       -3.55426192      -4.57089841      -5.60827024
C       -3.68115695      -5.14618323      -4.32924087
C       -3.70619907      -6.52841478      -4.14792814
C       -3.60795128      -7.36926882      -5.24453219
C       -3.52107498      -6.82535002      -6.52377754
H       -3.47532449      -0.42418304      -1.87164927
H       -2.22843688      -0.07836426      -3.06396505
H       -4.28085506      -0.98040690      -4.10453654
H       -4.14679266      -2.44598285      -3.14571001
H        0.34594012      -3.37020818      -1.18255353
H        1.72599882      -4.77486853      -2.63477909
H        1.19201786      -4.97667930      -5.04672039
H       -0.74115026      -3.83165218      -5.97843866
H       -3.26976516      -1.54314590      -7.31513994
H       -1.98053101      -2.73522460      -7.35070629
H       -3.56916753      -3.01392589      -9.23636046
H       -4.89328104      -3.23478638      -8.09859569
H       -3.73520930      -4.52902997      -3.43885286
H       -3.78309320      -6.94338168      -3.14659488
H       -3.60354588      -8.44710341      -5.10833005
H       -3.43957687      -7.51291830      -7.36351557
C       -4.35561267      -5.56598953      -9.03916599
C       -5.10380927      -6.14192469      -9.78945697
Br      -6.31357988      -7.07316312     -11.00261403
C       -1.83673641       1.83673641       1.83673641
H       -1.14994697       2.49864201       2.37689143
C       -2.71607571       2.64712543       0.88963854
C       -3.76915861       3.40634020       1.67612411
C       -4.72553250       2.43119664       2.40069261
H       -5.27407160       1.92946280       1.58821856
C       -3.98558699       1.29117852       3.10793399
C       -2.62085992       1.01789135       2.84157512
C       -1.96876629       0.02041130       3.59672810
C       -2.65904231      -0.76104460       4.52045621
C       -4.01425922      -0.55163552       4.71775656
C       -4.66871526       0.46105432       4.01768649
C       -5.77967067       3.27133580       3.23063355
H       -5.78875637       4.29035266       2.81319863
C       -7.19462775       2.72107957       2.93767732
C       -8.24363571       3.46203504       3.74629974
C       -8.01371988       3.23330194       5.23682372
H       -8.31194433       2.21600175       5.51573510
C       -6.57960978       3.46046045       5.66967004
C       -5.52271572       3.48476212       4.72595273
C       -4.21917313       3.74884537       5.18856255
C       -3.94050794       3.89516285       6.54687120
C       -4.96209980       3.78371795       7.47593456
C       -6.26671417       3.56186545       7.04162291
H       -2.10233440       3.35278924       0.31603317
H       -3.21528311       1.99938534       0.15609774
H       -4.34515881       4.03516761       0.98547208
H       -3.27491443       4.08626574       2.37730535
H       -0.90401856      -0.16586389       3.46866692
H       -2.13787531      -1.53345086       5.07922434
H       -4.56319281      -1.16182590       5.43001493
H       -5.72411638       0.60296631       4.22415841
H       -7.41735893       2.84084188       1.86985019
H       -7.26520475       1.64976092       3.15149622
H       -9.24426223       3.11424084       3.46095082
H       -8.20067286       4.53068195       3.49530830
H       -3.38291592       3.81889626       4.50127996
H       -2.92079652       4.07681432       6.87545892
H       -4.74808027       3.87364114       8.53725792
H       -7.04534937       3.47371782       7.79694355
C       -8.92450824       4.11038036       5.92587960
C       -9.68729350       4.84493353       6.50296389
Br     -10.92065275       6.03264389       7.43606039
C        1.83673641      -1.83673641       1.83673641
H        2.86842617      -1.53471864       1.62233559
C        1.47591946      -1.49740024       3.27951998
C        2.15504679      -2.46714972       4.22942642
C        1.64689080      -3.90943840       4.00109256
H        0.59223143      -3.88264165       4.31687987
C        1.58047186      -4.28660552       2.51762213
C        1.67533316      -3.30494814       1.50004508
C        1.70784828      -3.72459583       0.15346157
C        1.55013623      -5.06389632      -0.19557862
C        1.36989915      -6.01367454       0.79680659
C        1.38292468      -5.62794944       2.13658194
C        2.40907158      -4.88245849       4.99010994
H        2.82606520      -4.26512069       5.80112177
C        1.37219290      -5.79107011       5.69012163
C        2.05472767      -6.77928955       6.61795327
C        2.94964622      -7.71856747       5.81563186
H        2.34093395      -8.44194009       5.26080713
C        3.86465353      -7.00018498       4.84490176
C        3.61671972      -5.66002162       4.45668924
C        4.53277521      -5.03487600       3.58892984
C        5.61252011      -5.72747045       3.04255143
C        5.80339950      -7.06363994       3.35471285
C        4.93418450      -7.69465393       4.24136410
H        1.78535727      -0.47137372       3.51442581
H        0.39000768      -1.54067665       3.44008186
H        1.93940669      -2.16445578       5.26193604
H        3.24004355      -2.39439448       4.10404750
H        1.85227673      -3.00395532      -0.64941046
H        1.56373567      -5.36059218      -1.24067905
H        1.23754460      -7.05981086       0.53402638
H        1.26267997      -6.41056853       2.87799260
H        0.68175187      -5.17076005       6.27553908
H        0.76007299      -6.33945736       4.96693154
H        1.29849424      -7.35492261       7.16603704
H        2.63154515      -6.22456321       7.37055476
H        4.40997445      -3.99795077       3.29516691
H        6.29041442      -5.22411482       2.35854051
H        6.62923722      -7.61536188       2.91438025
H        5.10833190      -8.74621509       4.46146375
C        3.69265145      -8.48984860       6.77826816
C        4.31491833      -9.13579654       7.58447606
Br       5.32107124     -10.18023974       8.88804605
C       -0.00445707       0.01189536      -1.78238275
H       -0.66409135       0.67374010      -2.43557963
H        0.65740317      -0.63156657      -2.45157240
C       -0.90989263      -0.90692880      -0.91072765
C        0.90977584       0.90977584      -0.90977584
C       -0.00465871       1.77757030       0.00794375
H       -0.66225468       2.44313916      -0.64384735
H        0.64322798       2.43503045       0.67728295
C       -1.78241447       0.00034974      -0.00472694
H       -2.45427497      -0.65498947       0.64260836
H       -2.43311707       0.67328779      -0.65473579
C       -0.91132561       0.90220522       0.91563759
C       -0.01476271      -0.02253852       1.78660255
H       -0.67934791      -0.69751639       2.42135241
H        0.63392994       0.61504881       2.47327442
C        0.01484550      -1.77751727      -0.01636693
H        0.67870853      -2.42144646      -0.68295456
H       -0.62264859      -2.45592969       0.64226336
C        1.78714474       0.01002794       0.00389507
H        2.44202412       0.67113390       0.66197326
H        2.45385902      -0.65136977      -0.64189061
C        0.91606151      -0.90478549       0.90901405
