69
Properties=species:S:1:pos:R:3 pbc="F F F"
C        0.00000000       0.00000000       0.00000000
N        3.97260346      -0.81838893      -3.30614475
N        3.62864716       0.54120286      -3.41507066
C        2.68208720       1.08405144      -2.50510813
C        1.84960267       0.29289987      -1.70148611
C        0.88260888       0.88260888      -0.88260888
C        0.70872021       2.26274085      -0.86476454
C        1.50924461       3.05180113      -1.68397208
C        2.47928461       2.47257978      -2.50506157
H        4.67061319      -1.06271957      -4.01400109
H        3.16095547      -1.39511923      -3.54645381
H        4.42040087       1.18487105      -3.51856717
H        1.96112151      -0.78694024      -1.69623056
H       -0.04580963       2.71556245      -0.22811528
H        3.07889372       3.10527353      -3.15473176
C        1.33012612       4.48059361      -1.69225556
C        1.18011439       5.67720731      -1.69919298
Br       0.93755811       7.61203046      -1.71041020
N       -4.61723797       0.55568294      -2.39880425
N       -4.08592856      -0.67562381      -2.82336832
C       -2.90589168      -1.16435713      -2.20099795
C       -2.07232702      -0.36720590      -1.40445573
C       -0.88260888      -0.88260888      -0.88260888
C       -0.48796618      -2.18724112      -1.16101830
C       -1.29396470      -2.97365469      -1.97739843
C       -2.48536540      -2.46863323      -2.50292733
H       -5.46936579       0.77110565      -2.92363457
H       -3.97160610       1.30993074      -2.65061468
H       -4.76815741      -1.43525358      -2.92042810
H       -2.35363587       0.65521481      -1.17199077
H        0.43872234      -2.58194705      -0.75464338
H       -3.08933679      -3.09217022      -3.15739199
C       -0.89146753      -4.32013834      -2.29136943
C       -0.55437614      -5.44781840      -2.55432014
Br      -0.00932788      -7.27118169      -2.97948920
N        0.60534595       4.54611293       2.51959230
N       -0.75136511       4.19440173       2.63915384
C       -1.17040746       2.91455668       2.18628262
C       -0.38521880       2.09812426       1.36064558
C       -0.88260888       0.88260888       0.88260888
C       -2.17334284       0.46806171       1.19482105
C       -2.96975696       1.28838256       1.98687831
C       -2.48189279       2.50435513       2.47067805
H        0.76020660       5.48497491       2.89712640
H        0.84850239       4.63244225       1.52835018
H       -1.17627497       4.39726034       3.55030377
H        0.62512288       2.39673213       1.09880258
H       -2.55557737      -0.47648777       0.81877849
H       -3.12845829       3.14130686       3.06913385
C       -4.31480852       0.88383440       2.30433238
C       -5.44128920       0.54502532       2.57020017
Br      -7.26271319      -0.00280031       3.00008589
N       -0.64246073      -4.48525957       2.61756044
N        0.72269606      -4.15751971       2.70470491
C        1.15703054      -2.89474884       2.21946738
C        0.37165346      -2.07909121       1.39324397
C        0.88260888      -0.88260888       0.88260888
C        2.18670474      -0.48715040       1.16237046
C        2.98258380      -1.30754480       1.95488922
C        2.48125307      -2.50455864       2.47111425
H       -0.80772286      -5.41367549       3.01594208
H       -0.90622769      -4.58558907       1.63292867
H        1.16115130      -4.35128137       3.61140642
H       -0.64899466      -2.36309596       1.15631052
H        2.57939420       0.44260491       0.76107881
H        3.12707450      -3.14242193       3.06940258
C        4.34088964      -0.92302772       2.23905794
C        5.47847079      -0.60099467       2.47704923
Br       7.31784328      -0.08029446       2.86186103
