61
Properties=species:S:1:pos:R:3 pbc="F F F"
C        0.00000000       0.00000000       0.00000000
N        2.74679816       4.39741875       0.69537461
N        3.12590149       3.86919124      -0.55146393
C        2.36152872       2.80337869      -1.11230553
C        1.55652930       1.96921393      -0.31960650
C        0.88260330       0.88260330      -0.88260330
C        1.01019184       0.58835894      -2.23738636
C        1.82543439       1.38513883      -3.03804343
C        2.50219092       2.47496877      -2.47797175
Br       3.60571658       3.51409848      -3.62825782
H        3.33767934       5.19944749       0.93043414
H        2.94856434       3.71474330       1.43124038
H        3.32350543       4.55815195      -1.28775428
H        1.44306247       2.16895560       0.74112542
H        0.48749409      -0.25776978      -2.67488441
H        1.93232780       1.14943733      -4.09406630
N        0.79186020      -4.13260544      -3.10809707
N       -0.59885202      -3.99925209      -2.94845255
C       -1.11554446      -2.81226822      -2.34940027
C       -0.32885273      -1.99459103      -1.52190598
C       -0.88260330      -0.88260330      -0.88260330
C       -2.23122920      -0.57146007      -1.03324788
C       -3.03767290      -1.38412188      -1.82682187
C       -2.48674444      -2.49904620      -2.46934080
Br      -3.64855626      -3.56980936      -3.52970725
H        1.00506822      -4.99460761      -3.61715329
H        1.22933510      -4.26889033      -2.19251204
H       -1.16779301      -4.22890754      -3.77271111
H        0.72410819      -2.21566092      -1.37933992
H       -2.66229750       0.29231569      -0.53462692
H       -4.09291126      -1.14626722      -1.93665294
N       -3.13166230      -0.79666836       4.11384837
N       -2.96473250       0.59388257       3.98794160
C       -2.35752219       1.11336002       2.80633073
C       -1.52988000       0.32662043       1.98884931
C       -0.88260330       0.88260330       0.88260330
C       -1.02530264       2.23340929       0.57722521
C       -1.81890680       3.03976145       1.38994840
C       -2.46940029       2.48660203       2.49912912
Br      -3.52933172       3.64836182       3.57037934
H       -3.64586674      -1.01154707       4.97237302
H       -2.21884432      -1.23918278       4.25240572
H       -3.78735543       1.16567195       4.21638427
H       -1.39341287      -0.72805797       2.20553775
H       -0.52048322       2.66620189      -0.28207639
H       -1.92254818       4.09664023       1.15664301
N        4.74935180       0.44741725       2.14690776
N        4.13901700      -0.67690848       2.73063119
C        2.93321675      -1.18309227       2.16090392
C        2.09810752      -0.38666503       1.36057718
C        0.88260330      -0.88260330       0.88260330
C        0.46064589      -2.16934126       1.20594999
C        1.25925964      -2.96793934       2.02141767
C        2.47796766      -2.47497241       2.50219137
Br       3.51288141      -3.61676291       3.61842855
H        5.63831471       0.64556814       2.61394612
H        4.18049607       1.27870188       2.33027307
H        4.76281194      -1.46597005       2.94062967
H        2.39659715       0.62305821       1.09735370
H       -0.48549872      -2.55440788       0.83569956
H        0.92500304      -3.96933877       2.28148963
