82
Properties=species:S:1:pos:R:3 pbc="F F F"
N        3.65670218       5.30732278      -0.21452942
N        4.03580551       4.77909527      -1.46136795
C        3.27143275       3.71328271      -2.02220955
C        2.46643333       2.87911795      -1.22951053
C        1.79250732       1.79250732      -1.79250732
C        1.92009587       1.49826297      -3.14729038
C        2.73533842       2.29504285      -3.94794745
C        3.41209494       3.38487279      -3.38787578
Br       4.51562060       4.42400250      -4.53816184
H        4.24758336       6.10935151       0.02053012
H        3.85846837       4.62464732       0.52133635
H        4.23340945       5.46805597      -2.19765830
H        2.35296649       3.07885962      -0.16877860
H        1.39739811       0.65213424      -3.58478844
H        2.84223182       2.05934135      -5.00397033
N       -1.97245521      -1.18120559      -6.02489357
N       -2.49911073      -2.34335632      -5.43380168
C       -2.57154403      -2.42391177      -4.01146921
C       -1.75944172      -1.63528947      -3.18033063
C       -1.79250732      -1.79250732      -1.79250732
C       -2.61453743      -2.74871457      -1.20239722
C       -3.40828690      -3.56170762      -2.00833420
C       -3.37834295      -3.40724779      -3.39925278
Br      -4.48107759      -4.55798786      -4.43871950
H       -2.05492247      -1.23795102      -7.04353127
H       -0.96309227      -1.14046927      -5.85821779
H       -3.38307216      -2.68571072      -5.83034085
H       -1.10294483      -0.88623049      -3.61142941
H       -2.63892859      -2.87221009      -0.12318212
H       -4.04305425      -4.31475642      -1.54773283
N       -1.99101137       1.16574192       6.02180108
N       -2.51095534       2.33215174       5.43316165
C       -2.57762760       2.41841522       4.01088220
C       -1.76536264       1.62986526       3.17983390
C       -1.79250732       1.79250732       1.79250732
C       -2.60861176       2.75410521       1.20293225
C       -3.40233446       3.56705145       2.00894281
C       -3.37831272       3.40716751       3.39936328
Br      -4.48062151       4.55814849       4.43901495
H       -2.07716556       1.21891273       7.04032647
H       -0.98117984       1.12177341       5.85882609
H       -3.39511655       2.67637542       5.82763177
H       -1.11338840       0.87665438       3.61056193
H       -2.62839390       2.88181368       0.12411321
H       -4.03245115       4.32428145       1.54881090
N        4.99243733      -4.08038717       0.10572988
N        4.87891913      -3.90149040       1.49585920
C        3.70630815      -3.28081717       2.01979969
C        2.88915151      -2.45293297       1.23297733
C        1.79250732      -1.79250732       1.79250732
C        1.49676894      -1.92210612       3.14677416
C        2.30959235      -2.71576176       3.95297461
C        3.40916813      -3.37940506       3.39627033
Br       4.48122777      -4.43862280       4.55793437
H        5.84513986      -4.60308570      -0.11182080
H        5.13467034      -3.17222167      -0.34511267
H        5.10540352      -4.72136596       2.07235426
H        3.09851257      -2.32652304       0.17556911
H        0.64494915      -1.40706581       3.58230584
H        2.08389198      -2.80919844       5.01245308
C       -0.00445707       0.01189536      -1.78238275
H       -0.66409135       0.67374010      -2.43557963
H        0.65740317      -0.63156657      -2.45157240
C       -0.90989263      -0.90692880      -0.91072765
C        0.90977584       0.90977584      -0.90977584
C       -0.00465871       1.77757030       0.00794375
H       -0.66225468       2.44313916      -0.64384735
H        0.64322798       2.43503045       0.67728295
C       -1.78241447       0.00034974      -0.00472694
H       -2.45427497      -0.65498947       0.64260836
H       -2.43311707       0.67328779      -0.65473579
C       -0.91132561       0.90220522       0.91563759
C       -0.01476271      -0.02253852       1.78660255
H       -0.67934791      -0.69751639       2.42135241
H        0.63392994       0.61504881       2.47327442
C        0.01484550      -1.77751727      -0.01636693
H        0.67870853      -2.42144646      -0.68295456
H       -0.62264859      -2.45592969       0.64226336
C        1.78714474       0.01002794       0.00389507
H        2.44202412       0.67113390       0.66197326
H        2.45385902      -0.65136977      -0.64189061
C        0.91606151      -0.90478549       0.90901405
