138
Properties=species:S:1:pos:R:3 pbc="F F F"
N        1.90226161       1.20424003      -6.03629803
N        2.87316970       1.95864015      -5.36454965
C        2.71874681       2.30769907      -3.99572758
C        1.92608928       1.50388235      -3.14929840
C        1.79194144       1.79194144      -1.79194144
C        2.46125995       2.86973805      -1.23615468
C        3.27550312       3.65912740      -2.04858339
C        3.42480671       3.40770671      -3.43504860
C        4.27963323       4.35547780      -4.21578860
C        3.98247592       5.73688657      -4.12086837
C        4.74798313       6.70686320      -4.77067870
C        5.81972004       6.30826003      -5.55202094
C        6.13448909       4.95795163      -5.68417067
C        5.39894056       3.96403751      -5.00574292
N        5.68624523       2.58472050      -5.21358710
N        6.90655077       2.19676004      -5.79498074
Br       6.85658647       7.60994389      -6.45138183
H        1.87941032       0.24457320      -5.68735500
H        0.97118820       1.60105673      -5.89761823
H        3.34790910       2.67897911      -5.91954229
H        1.41234425       0.63273618      -3.54629670
H        2.36338416       3.10530004      -0.17925356
H        3.80367487       4.49269703      -1.58652469
H        3.13346943       6.07123182      -3.52198334
H        4.49540415       7.75521015      -4.65839355
H        6.97527209       4.67784498      -6.31200320
H        5.35807842       2.01416895      -4.42592259
H        6.92759105       2.49384617      -6.77518459
H        6.95324874       1.17499684      -5.84854670
N       -4.96314822      -4.10701484      -0.07263661
N       -4.47976243      -4.35191092      -1.36468616
C       -3.57003537      -3.45915863      -1.99297946
C       -2.72780944      -2.64397252      -1.20748808
C       -1.79194144      -1.79194144      -1.79194144
C       -1.65136399      -1.74663379      -3.16915490
C       -2.45213604      -2.56755338      -3.96352450
C       -3.42498097      -3.43493877      -3.40764229
C       -4.26372429      -4.22581604      -4.36135931
C       -4.94186512      -3.51616336      -5.38220237
C       -5.71085083      -4.16378119      -6.35089301
C       -5.83521059      -5.54225721      -6.30253321
C       -5.19730511      -6.27487968      -5.30442660
C       -4.38416136      -5.64536036      -4.33919927
N       -3.80282294      -6.40071208      -3.28101780
N       -3.72285745      -7.80166925      -3.37376484
Br      -6.88672205      -6.43238731      -7.59880283
H       -4.22075268      -4.21160204       0.62101620
H       -5.32333054      -3.15445386       0.00792125
H       -5.13883737      -4.79071647      -2.01687665
H       -2.79023816      -2.67780731      -0.12333167
H       -0.92608558      -1.08518585      -3.63666634
H       -2.31374509      -2.52563053      -5.04352098
H       -4.86880562      -2.42819734      -5.42968164
H       -6.20063556      -3.58358265      -7.12478964
H       -5.32279608      -7.35356227      -5.28876192
H       -2.98020756      -5.92469953      -2.89326286
H       -4.66519638      -8.20117666      -3.33024878
H       -3.26018143      -8.17629469      -2.54031614
N       -5.01630773       4.04167668       0.08481527
N       -4.51921355       4.31021902       1.36692694
C       -3.58939012       3.43805963       1.99472372
C       -2.74677657       2.62362847       1.20886499
C       -1.79194144       1.79194144       1.79194144
C       -1.63258339       1.76694193       3.16762737
C       -2.43370984       2.58777221       3.96173186
C       -3.42534343       3.43470482       3.40751377
C       -4.26192648       4.22713020       4.36184295
C       -4.91695460       3.52231232       5.40096393
C       -5.68167612       4.17262591       6.37122300
C       -5.82511231       5.54856706       6.30632164
C       -5.21031957       6.27612345       5.29016837
C       -4.40164443       5.64453505       4.32254151
N       -3.84450696       6.39326471       3.24678116
N       -3.78209050       7.79627260       3.31992843
Br      -6.87122841       6.44200332       7.60468047
H       -4.28461019       4.14676670      -0.62003836
H       -5.36473490       3.08344601       0.02168225
H       -5.17542980       4.74897137       2.02202932
H       -2.82397358       2.64211420       0.12528935
H       -0.89239800       1.12145555       3.63408423
H       -2.28051071       2.56214793       5.04023795
H       -4.82871149       2.43614008       5.46183303
H       -6.15337821       3.59642133       7.15920831
H       -5.35044016       7.35274709       5.26193302
H       -3.02078666       5.92301411       2.85436918
H       -4.73018755       8.18267433       3.28375994
H       -3.33552639       8.16578478       2.47548110
N        1.71162419      -1.37413036       6.05704512
N        2.73811997      -2.06181672       5.39642282
C        2.65188149      -2.36049067       4.00980130
C        1.86087736      -1.55449664       3.16389603
C        1.79194144      -1.79194144       1.79194144
C        2.52598577      -2.81906837       1.22209854
C        3.33928545      -3.60842350       2.03550496
C        3.42370691      -3.40815226       3.43570285
C        4.28523361      -4.35274973       4.21291630
C        4.04867136      -5.73972275       4.05183675
C        4.82706372      -6.70464817       4.69381314
C        5.85016396      -6.29654779       5.53328926
C        6.10411920      -4.94145439       5.73103780
C        5.35578263      -3.95028657       5.06265179
N        5.57816446      -2.57039846       5.33598991
N        6.75787173      -2.15893386       5.98148595
Br       6.90323459      -7.59219332       6.42248428
H        1.66331730      -0.40265336       5.74536787
H        0.80368308      -1.80116670       5.86501338
H        3.21973829      -2.78503811       5.94165409
H        1.29682130      -0.72110450       3.57345134
H        2.47933638      -3.01494367       0.15365772
H        3.91876277      -4.40107747       1.56305635
H        3.23816487      -6.08238134       3.40613839
H        4.62209222      -7.75663621       4.53027943
H        6.90749432      -4.65445173       6.40317423
H        5.25812430      -1.98147676       4.55856889
H        6.75256219      -2.49473487       6.94932476
H        6.76068070      -1.13916460       6.07694697
C       -0.00445707       0.01189536      -1.78238275
H       -0.66409135       0.67374010      -2.43557963
H        0.65740317      -0.63156657      -2.45157240
C       -0.90989263      -0.90692880      -0.91072765
C        0.90977584       0.90977584      -0.90977584
C       -0.00465871       1.77757030       0.00794375
H       -0.66225468       2.44313916      -0.64384735
H        0.64322798       2.43503045       0.67728295
C       -1.78241447       0.00034974      -0.00472694
H       -2.45427497      -0.65498947       0.64260836
H       -2.43311707       0.67328779      -0.65473579
C       -0.91132561       0.90220522       0.91563759
C       -0.01476271      -0.02253852       1.78660255
H       -0.67934791      -0.69751639       2.42135241
H        0.63392994       0.61504881       2.47327442
C        0.01484550      -1.77751727      -0.01636693
H        0.67870853      -2.42144646      -0.68295456
H       -0.62264859      -2.45592969       0.64226336
C        1.78714474       0.01002794       0.00389507
H        2.44202412       0.67113390       0.66197326
H        2.45385902      -0.65136977      -0.64189061
C        0.91606151      -0.90478549       0.90901405
