133
Properties=species:S:1:pos:R:3 pbc="F F F"
C        0.00000000       0.00000000       0.00000000
N        4.99288723      -0.10052393      -1.48025874
N        4.38906338       0.93774659      -2.21430882
C        3.05013269       1.32533792      -1.90443668
C        2.21278445       0.52316989      -1.11001843
C        0.88258738       0.88258738      -0.88258738
C        0.34869645       2.03225208      -1.45583502
C        1.15150380       2.82751165      -2.27200852
C        2.48847758       2.47647770      -2.50780437
C        3.26113227       3.31650775      -3.37828029
C        3.92352722       4.00595457      -4.10547343
C        4.79635805       4.86366888      -5.02427287
C        5.51221128       5.51915443      -5.73114571
C        6.39345048       6.29083491      -6.56062304
C        5.82363396       7.25675322      -7.40258819
C        6.63113014       8.02967656      -8.23530166
C        8.00719317       7.82725664      -8.23262882
C        8.58655086       6.86976434      -7.39688528
C        7.79569410       6.10252180      -6.52363558
N        8.36950636       5.08436725      -5.70917018
N        9.71140957       5.18039958      -5.30772934
Br       9.10478552       8.85320287      -9.38170209
H        5.95999513      -0.23094358      -1.79014399
H        4.53591038      -0.98757368      -1.71138527
H        4.96728148       1.77415748      -2.34981526
H        2.60015793      -0.38064730      -0.64991908
H       -0.68690700       2.31186385      -1.28194928
H        0.72752835       3.71826451      -2.73059253
H        4.74610724       7.40772077      -7.41604325
H        6.17823166       8.77385273      -8.88512652
H        9.66029690       6.71764247      -7.43890113
H        7.72701358       4.77355859      -4.97440637
H        9.92028913       6.11104015      -4.93848287
H       10.33777190       5.02356766      -6.09954455
N        0.86533219      -3.92508445      -3.31286978
N       -0.53278027      -3.82366133      -3.18467719
C       -1.09049796      -2.72225606      -2.46715327
C       -0.30390650      -1.90665535      -1.63541092
C       -0.88258738      -0.88258738      -0.88258738
C       -2.25532089      -0.66013856      -0.92132410
C       -3.05968774      -1.47566123      -1.71567500
C       -2.48989633      -2.50721229      -2.47565104
C       -3.36836210      -3.33352979      -3.25402842
C       -4.08731456      -4.03711964      -3.91052102
C       -4.97385552      -4.95019739      -4.76024688
C       -5.63828123      -5.67853262      -5.44569758
C       -6.40663144      -6.55512220      -6.28315479
C       -7.79762182      -6.57877879      -6.10657477
C       -8.59240653      -7.41679716      -6.88690467
C       -7.99297404      -8.23856293      -7.83554166
C       -6.60883583      -8.22225016      -8.02211449
C       -5.79072604      -7.36037403      -7.27075141
N       -4.37340037      -7.37687533      -7.41276809
N       -3.79482589      -7.77691236      -8.62780024
Br      -9.06379540      -9.39880861      -8.87708648
H        1.10558824      -4.73884199      -3.88594179
H        1.27397813      -4.13604092      -2.39765918
H       -1.06565492      -3.97809107      -4.04750823
H        0.77008792      -2.05643241      -1.58308521
H       -2.70743613       0.13462063      -0.33409064
H       -4.13454866      -1.30873202      -1.73310471
H       -8.26747005      -5.94646389      -5.35593732
H       -9.66916835      -7.42824498      -6.73979759
H       -6.16990133      -8.89555685      -8.75138232
H       -3.93538288      -6.55677732      -6.98281834
H       -4.24058149      -7.30880980      -9.42042086
H       -3.90946046      -8.78228822      -8.76913542
N       -0.06432782       5.05530043       1.25299379
N       -1.23552149       4.50180154       1.80379577
C       -1.42083176       3.08628685       1.77278869
C       -0.63443514       2.25490969       0.95662795
C       -0.88258738       0.88258738       0.88258738
C       -1.92892862       0.30957799       1.59827694
C       -2.74125480       1.11884679       2.39092238
C       -2.50186884       2.49809072       2.47280009
C       -3.38623777       3.28753219       3.28215035
C       -4.11660538       3.96541983       3.95293001
C       -5.02589128       4.85777576       4.80063276
C       -5.71290715       5.58556644       5.46403784
C       -6.50968696       6.47630829       6.25891318
C       -7.74535950       6.00862125       6.72899463
C       -8.56384138       6.83336598       7.49890099
C       -8.14968861       8.12926654       7.78812348
C       -6.92016789       8.60563374       7.32739885
C       -6.06277648       7.78064645       6.57842856
N       -4.83310559       8.27437821       6.05555999
N       -4.16859180       9.32833718       6.70260951
Br      -9.26934267       9.26233685       8.80801096
H       -0.05972059       6.07004115       1.38943380
H       -0.08315630       4.94129083       0.23527483
H       -1.50126917       4.86396544       2.72601961
H        0.18865425       2.67284687       0.38523708
H       -2.12493039      -0.75768037       1.53965611
H       -3.56759643       0.67048512       2.93830385
H       -8.07736906       4.99963738       6.49286482
H       -9.52033973       6.46085309       7.85601810
H       -6.63894949       9.63050359       7.54738741
H       -4.22078128       7.51773102       5.73646624
H       -4.10131831       9.15940454       7.70908929
H       -4.67623219      10.20627001       6.57838190
N        4.86080658       0.33036119       1.84217664
N        4.28566796      -0.79691868       2.45853216
C        3.00244309      -1.25068648       2.02677773
C        2.16474416      -0.45146102       1.22976758
C        0.88258738      -0.88258738       0.88258738
C        0.39600111      -2.10430824       1.33647419
C        1.19735633      -2.90057529       2.15309235
C        2.48629903      -2.47793981       2.50852082
C        3.25722648      -3.32473798       3.37395585
C        3.91720129      -4.01875485       4.09899908
C        4.78582495      -4.87988052       5.01859433
C        5.49790378      -5.53501212       5.72959553
C        6.37469218      -6.30347601       6.56674024
C        5.82084044      -7.36429335       7.29784159
C        6.62412104      -8.13921778       8.13276954
C        7.97888067      -7.84450851       8.24368945
C        8.54241721      -6.79188172       7.51890155
C        7.75884866      -6.01854193       6.64446090
N        8.31102428      -4.90747196       5.94454756
N        9.68043436      -4.88310738       5.63599676
Br       9.06778956      -8.87454521       9.39735571
H        5.79271027       0.50307072       2.22955599
H        4.32605969       1.16534061       2.09900288
H        4.91257830      -1.59991991       2.57875601
H        2.51572680       0.50750015       0.86120306
H       -0.60243130      -2.43997944       1.06935800
H        0.80910657      -3.84890282       2.51837600
H        4.75867955      -7.58839006       7.22280165
H        6.18351336      -8.95753046       8.69616709
H        9.59697953      -6.57091867       7.64894229
H        7.69885008      -4.58832865       5.18779980
H        9.98081667      -5.76822112       5.22077436
H       10.23875305      -4.74215046       6.47998060
