162
Properties=species:S:1:pos:R:3 pbc="F F F"
N        5.90279126       0.80938009      -2.39016276
N        5.29896741       1.84765061      -3.12421285
C        3.96003672       2.23524195      -2.81434070
C        3.12268847       1.43307392      -2.01992246
C        1.79249140       1.79249140      -1.79249140
C        1.25860047       2.94215610      -2.36573904
C        2.06140782       3.73741568      -3.18191254
C        3.39838161       3.38638172      -3.41770840
C        4.17103629       4.22641178      -4.28818431
C        4.83343124       4.91585859      -5.01537745
C        5.70626207       5.77357291      -5.93417689
C        6.42211531       6.42905846      -6.64104974
C        7.30335450       7.20073893      -7.47052707
C        6.73353799       8.16665725      -8.31249222
C        7.54103417       8.93958058      -9.14520568
C        8.91709719       8.73716066      -9.14253285
C        9.49645488       7.77966836      -8.30678931
C        8.70559813       7.01242582      -7.43353960
N        9.27941038       5.99427127      -6.61907421
N       10.62131360       6.09030360      -6.21763337
H        6.86989916       0.67896045      -2.70004801
H        5.44581440      -0.07766966      -2.62128929
H        5.87718550       2.68406150      -3.25971929
H        3.51006195       0.52925672      -1.55982311
H        0.22299703       3.22176788      -2.19185330
H        1.63743237       4.62816854      -3.64049655
H        5.65601127       8.31762479      -8.32594727
H        7.08813568       9.68375675      -9.79503055
H       10.57020093       7.62754649      -8.34880515
H        8.63691761       5.68346261      -5.88431039
H       10.83019316       7.02094418      -5.84838689
H       11.24767592       5.93347168      -7.00944857
C        9.75270983       9.51822810     -10.01733864
C       10.45253542      10.17237207     -10.74998850
Br      11.58409420      11.23006755     -11.93462135
N       -0.05732358      -4.91078677      -4.13422376
N       -1.45541743      -4.78158996      -4.03382347
C       -2.00559265      -3.65711649      -3.34691022
C       -1.21928504      -2.84068901      -2.51571079
C       -1.79249140      -1.79249140      -1.79249140
C       -3.15993593      -1.54586422      -1.86069547
C       -3.96469168      -2.36119755      -2.65484682
C       -3.40038032      -3.41684654      -3.38524488
C       -4.27970057      -4.24132719      -4.16460462
C       -4.99950458      -4.94376497      -4.82139774
C       -5.88720691      -5.85615167      -5.67065329
C       -6.55243428      -6.58485490      -6.35493433
C       -7.32153283      -7.46268839      -7.19039928
C       -8.71570467      -7.45776216      -7.03922062
C       -9.51155334      -8.29549814      -7.81876894
C       -8.91029213      -9.14546726      -8.74103132
C       -7.52292444      -9.15779533      -8.90219278
C       -6.70278957      -8.29717064      -8.15160334
N       -5.28366410      -8.34207989      -8.26701187
N       -4.69059417      -8.77501878      -9.46363762
H        0.17819885      -5.73925822      -4.68784824
H        0.33062761      -5.11214875      -3.20791290
H       -1.97527813      -4.94226070      -4.90342747
H       -0.14937962      -3.00898287      -2.44077929
H       -3.60785573      -0.73226844      -1.29649403
H       -5.03578029      -2.17509501      -2.69522216
H       -9.18733368      -6.80320580      -6.30904385
H      -10.59084023      -8.28462939      -7.69145337
H       -7.08334696      -9.85237139      -9.61083422
H       -4.83842069      -7.52226018      -7.84400974
H       -5.11310814      -8.31365101     -10.27276507
H       -4.82124663      -9.78058903      -9.58876052
C       -9.72719046     -10.02834285      -9.53274326
C      -10.41134282     -10.76775116     -10.19580201
Br     -11.51755931     -11.96331186     -11.26791194
N       -0.05735472       4.91095020       4.13402919
N       -1.45544741       4.78169332       4.03369013
C       -2.00560509       3.65717026       3.34684401
C       -1.21929807       2.84074098       2.51564579
C       -1.79249140       1.79249140       1.79249140
C       -3.15992331       1.54581213       1.86076018
C       -3.96467990       2.36114504       2.65491110
C       -3.40038158       3.41684593       3.38524422
C       -4.27970365       4.24132258       4.16460616
C       -4.99950949       4.94375783       4.82139997
C       -5.88721435       5.85614299       5.67065453
C       -6.55244349       6.58484698       6.35493303
C       -7.32154374       7.46268313       7.19039362
C       -8.71572144       7.45769495       7.03927105
C       -9.51157245       8.29543028       7.81881769
C       -8.91030835       9.14546047       8.74102189
C       -7.52293469       9.15785062       8.90212724
C       -6.70279541       8.29722872       8.15153942
N       -5.28366711       8.34219948       8.26688927
N       -4.69056657       8.77521012       9.46347387
H        0.17815670       5.73945329       4.68761102
H        0.33055127       5.11229060       3.20769471
H       -1.97527969       4.94237808       4.90330853
H       -0.14940240       3.00907473       2.44066465
H       -3.60783311       0.73217578       1.29660931
H       -5.03575944       2.17500118       2.69533684
H       -9.18735349       6.80309041       6.30913943
H      -10.59086400       8.28451316       7.69154583
H       -7.08335664       9.85247271       9.61072322
H       -4.83840780       7.52238066       7.84390215
H       -5.11302961       8.31385786      10.27263676
H       -4.82125432       9.78078015       9.58856171
C       -9.72721033      10.02833506       9.53273119
C      -10.41136575      10.76774252      10.19578772
Br     -11.51758719      11.96330185      11.26789407
N        5.73276822      -0.52951238       2.84005351
N        5.16669062      -1.67663923       3.42750102
C        3.89882244      -2.14444109       2.96635583
C        3.06109737      -1.34589903       2.16868844
C        1.79249140      -1.79249140       1.79249140
C        1.31927880      -3.02977351       2.21744330
C        2.12029107      -3.82630250       3.03414247
C        3.39568751      -3.38822547       3.41855875
C        4.16632396      -4.23661483       4.28269359
C        4.82578791      -4.93173244       5.00714695
C        5.69342829      -5.79373016       5.92685341
C        6.40455331      -6.44885969       6.63881050
C        7.28015821      -7.21667802       7.47778426
C        6.73230167      -8.29896252       8.18142327
C        7.53456728      -9.07443517       9.01681798
C        8.88204792      -8.75897039       9.15577240
C        9.43962033      -7.68481935       8.45847287
C        8.65775119      -6.90992575       7.58388661
N        9.20255113      -5.77796343       6.91224131
N       10.57633061      -5.72536115       6.62755881
H        6.65495716      -0.34782613       3.24612432
H        5.17961476       0.29187164       3.10169091
H        5.80510845      -2.47094265       3.54491520
H        3.40179786      -0.37503294       1.82231098
H        0.33134336      -3.37754357       1.92773128
H        1.74220770      -4.78710736       3.37678241
H        5.67552877      -8.53953748       8.08451708
H        7.09859773      -9.90952210       9.55880316
H       10.48792741      -7.44844331       8.61018185
H        8.59780390      -5.45626882       6.15061789
H       10.89870015      -6.59809450       6.20272957
H       11.11792162      -5.58947986       7.48319470
C        9.70945753      -9.54400619      10.03481286
C       10.40241307     -10.20147366      10.77100925
Br      11.52286359     -11.26454297      11.96137655
C       -0.00445707       0.01189536      -1.78238275
H       -0.66409135       0.67374010      -2.43557963
H        0.65740317      -0.63156657      -2.45157240
C       -0.90989263      -0.90692880      -0.91072765
C        0.90977584       0.90977584      -0.90977584
C       -0.00465871       1.77757030       0.00794375
H       -0.66225468       2.44313916      -0.64384735
H        0.64322798       2.43503045       0.67728295
C       -1.78241447       0.00034974      -0.00472694
H       -2.45427497      -0.65498947       0.64260836
H       -2.43311707       0.67328779      -0.65473579
C       -0.91132561       0.90220522       0.91563759
C       -0.01476271      -0.02253852       1.78660255
H       -0.67934791      -0.69751639       2.42135241
H        0.63392994       0.61504881       2.47327442
C        0.01484550      -1.77751727      -0.01636693
H        0.67870853      -2.42144646      -0.68295456
H       -0.62264859      -2.45592969       0.64226336
C        1.78714474       0.01002794       0.00389507
H        2.44202412       0.67113390       0.66197326
H        2.45385902      -0.65136977      -0.64189061
C        0.91606151      -0.90478549       0.90901405
