154
Properties=species:S:1:pos:R:3 pbc="F F F"
N        5.90279126       0.80938009      -2.39016276
N        5.29896741       1.84765061      -3.12421285
C        3.96003672       2.23524195      -2.81434070
C        3.12268847       1.43307392      -2.01992246
C        1.79249140       1.79249140      -1.79249140
C        1.25860047       2.94215610      -2.36573904
C        2.06140782       3.73741568      -3.18191254
C        3.39838161       3.38638172      -3.41770840
C        4.17103629       4.22641178      -4.28818431
C        4.83343124       4.91585859      -5.01537745
C        5.70626207       5.77357291      -5.93417689
C        6.42211531       6.42905846      -6.64104974
C        7.30335450       7.20073893      -7.47052707
C        6.73353799       8.16665725      -8.31249222
C        7.54103417       8.93958058      -9.14520568
C        8.91709719       8.73716066      -9.14253285
C        9.49645488       7.77966836      -8.30678931
C        8.70559813       7.01242582      -7.43353960
N        9.27941038       5.99427127      -6.61907421
N       10.62131360       6.09030360      -6.21763337
Br      10.01468954       9.76310689     -10.29160612
H        6.86989916       0.67896045      -2.70004801
H        5.44581440      -0.07766966      -2.62128929
H        5.87718550       2.68406150      -3.25971929
H        3.51006195       0.52925672      -1.55982311
H        0.22299703       3.22176788      -2.19185330
H        1.63743237       4.62816854      -3.64049655
H        5.65601127       8.31762479      -8.32594727
H        7.08813568       9.68375675      -9.79503055
H       10.57020093       7.62754649      -8.34880515
H        8.63691761       5.68346261      -5.88431039
H       10.83019316       7.02094418      -5.84838689
H       11.24767592       5.93347168      -7.00944857
N       -0.04419536      -4.83240644      -4.22573231
N       -1.44229071      -4.73192644      -4.09661371
C       -2.00024498      -3.63130932      -3.37806507
C       -1.21364353      -2.81573651      -2.54630481
C       -1.79249140      -1.79249140      -1.79249140
C       -3.16538570      -1.57086699      -1.83024293
C       -3.96973947      -2.38639584      -2.62460073
C       -3.39978086      -3.41712510      -3.38556577
C       -4.27821699      -4.24350443      -4.16391096
C       -4.99714033      -4.94713286      -4.82039410
C       -5.88364216      -5.86023334      -5.67013637
C       -6.54804140      -6.58855555      -6.35562655
C       -7.31636747      -7.46510242      -7.19315061
C       -8.70723360      -7.48972757      -7.01572629
C       -9.50198267      -8.32775485      -7.79608291
C       -8.90262912      -9.14856408      -8.74559750
C       -7.51861680      -9.13128081      -8.93301493
C       -6.70057528      -8.26936348      -8.18162479
N       -5.28332772      -8.28490127      -8.32452687
N       -4.70525721      -8.68383031      -9.54016304
Br      -9.97337717     -10.30882780      -9.78719759
H        0.19620901      -5.64566131      -4.79945531
H        0.36514623      -5.04367549      -3.31090477
H       -1.97560295      -4.88615256      -4.95921077
H       -0.13952470      -2.96488218      -2.49473491
H       -3.61762869      -0.77675011      -1.24223940
H       -5.04471383      -2.22012011      -2.64126352
H       -9.17700829      -6.85816679      -6.26440825
H      -10.57864611      -8.33995886      -7.64831802
H       -7.07971731      -9.80386567      -9.66296960
H       -4.84555116      -7.46479843      -7.89434102
H       -5.15179150      -8.21551390     -10.33221883
H       -4.81935822      -9.68918934      -9.68204862
N       -0.04463364       4.83540999       4.22229048
N       -1.44274879       4.73383288       4.09424919
C       -2.00042774       3.63229896       3.37689266
C       -1.21383791       2.81669370       2.54515323
C       -1.79249140       1.79249140       1.79249140
C       -3.16519855       1.56990800       1.83138907
C       -3.96956754       2.38542966       2.62573884
C       -3.39980354       3.41711487       3.38555332
C       -4.27827415       4.24342228       4.16393596
C       -4.99723135       4.94700583       4.82043011
C       -5.88377871       5.86007986       5.67015330
C       -6.54820875       6.58841721       6.35559754
C       -7.31656291       7.46501376       7.19304383
C       -8.70757347       7.48851220       7.01660178
C       -9.50236400       8.32652912       7.79692731
C       -8.90291873       9.14845107       8.74542091
C       -7.51876006       9.13229676       8.93185573
C       -6.70063912       8.27042737       8.18049706
N       -5.28330080       8.28708598       8.32236908
N       -4.70464411       8.68730397       9.53730249
Br      -9.97375206      10.30869379       9.78695671
H        0.19559811       5.64924958       4.79525615
H        0.36389867       5.04631534       3.30701737
H       -1.97555197       4.88829592       4.95711840
H       -0.13986389       2.96657383       2.49270406
H       -3.61729284       0.77504396       1.24428141
H       -5.04440984       2.21839378       2.64329385
H       -9.17743363       6.85607418       6.26607553
H      -10.57914180       8.33785346       7.64992772
H       -7.07981993       9.80572131       9.66101134
H       -4.84524395       7.46698879       7.89245788
H       -5.15027252       8.21923642      10.33001529
H       -4.81936586       9.69268251       9.67854780
N        5.76784450      -0.57557679       2.75891282
N        5.19338075      -1.70442271       3.37302742
C        3.91132344      -2.15930874       2.93898718
C        3.07362167      -1.36013680       2.14192637
C        1.79249140      -1.79249140       1.79249140
C        1.30691788      -3.01544776       2.24412998
C        2.10824632      -3.81173491       3.06075481
C        3.39616282      -3.38787311       3.41843580
C        4.16706589      -4.23479560       4.28377089
C        4.82699997      -4.92889809       5.00876923
C        5.69554672      -5.79009090       5.92837426
C        6.40755197      -6.44522118       6.63945035
C        7.28424986      -7.21363305       7.47673759
C        6.73083453      -8.27613967       8.20571325
C        7.53403617      -9.05110582       9.04067844
C        8.88825949      -8.75476148       9.15376973
C        9.45136209      -7.70044097       8.43110948
C        8.66792652      -6.92698150       7.55665554
N        9.21955854      -5.81426561       6.85893170
N       10.58933994      -5.78769385       6.55221677
Br       9.97700570      -9.78488355      10.30751330
H        6.69900971      -0.40215211       3.14774579
H        5.23166126       0.25835974       3.01613252
H        5.82118932      -2.50675641       3.49302056
H        3.42382560      -0.40023037       1.77508581
H        0.30928050      -3.35207966       1.97525804
H        1.72076564      -4.76105241       3.42427941
H        5.66906927      -8.50153403       8.12898004
H        7.09376591      -9.87073843       9.60241864
H       10.50546061      -7.47826269       8.56282928
H        8.60796035      -5.49493142       6.10179884
H       10.89143335      -6.67186424       6.13622663
H       11.14636213      -5.64711431       7.39711973
C       -0.00445707       0.01189536      -1.78238275
H       -0.66409135       0.67374010      -2.43557963
H        0.65740317      -0.63156657      -2.45157240
C       -0.90989263      -0.90692880      -0.91072765
C        0.90977584       0.90977584      -0.90977584
C       -0.00465871       1.77757030       0.00794375
H       -0.66225468       2.44313916      -0.64384735
H        0.64322798       2.43503045       0.67728295
C       -1.78241447       0.00034974      -0.00472694
H       -2.45427497      -0.65498947       0.64260836
H       -2.43311707       0.67328779      -0.65473579
C       -0.91132561       0.90220522       0.91563759
C       -0.01476271      -0.02253852       1.78660255
H       -0.67934791      -0.69751639       2.42135241
H        0.63392994       0.61504881       2.47327442
C        0.01484550      -1.77751727      -0.01636693
H        0.67870853      -2.42144646      -0.68295456
H       -0.62264859      -2.45592969       0.64226336
C        1.78714474       0.01002794       0.00389507
H        2.44202412       0.67113390       0.66197326
H        2.45385902      -0.65136977      -0.64189061
C        0.91606151      -0.90478549       0.90901405
