146
Properties=species:S:1:pos:R:3 pbc="F F F"
N        0.47631901       5.14416500      -1.02106583
N        0.91627414       3.83729242      -0.74532977
C        1.74879698       3.19847842      -1.70528655
C        2.62322991       3.94307086      -2.51974330
C        3.47908344       3.34121743      -3.46475723
C        3.45612788       1.93854720      -3.55151864
C        2.63636941       1.17144308      -2.71944772
C        1.79792205       1.79792205      -1.79792205
C        4.36459283       4.15390393      -4.33365136
C        3.95102310       5.40069851      -4.83268867
C        4.78772645       6.17429809      -5.64000231
C        6.05357134       5.70102643      -5.98416885
C        6.49958624       4.44041628      -5.54779356
C        5.65356960       3.70676272      -4.69456463
N        7.81733544       3.99548704      -5.86742187
N        8.09138052       2.61319357      -5.82331462
H        0.07633294       5.57135983      -0.18296562
H       -0.26289012       5.13615655      -1.72776438
H        0.21840786       3.17811893      -0.38296717
H        2.64309794       5.02406224      -2.39224193
H        4.08000418       1.42041144      -4.27754500
H        2.65852710       0.08811630      -2.80396714
H        2.96085274       5.78797203      -4.59956984
H        4.43978179       7.14106445      -5.99450963
H        6.00973596       2.76111483      -4.29577669
H        8.12219050       4.47622854      -6.72314767
H        8.12268863       2.30452332      -4.84788350
H        9.03656627       2.43398029      -6.17323138
C        6.87792716       6.53537714      -6.81957077
C        7.56832516       7.23414586      -7.51921988
Br       8.68464034       8.36399578      -8.65049332
N        0.54909927      -4.48348599      -2.70716311
N       -0.08309315      -3.55864284      -1.85716033
C       -1.35075771      -3.04930317      -2.25250107
C       -2.23694303      -3.82407687      -3.02502417
C       -3.51002906      -3.36026648      -3.41476257
C       -3.89145863      -2.08158389      -2.97315120
C       -3.05322747      -1.31188773      -2.16214502
C       -1.79792205      -1.79792205      -1.79792205
C       -4.40849913      -4.18539766      -4.25825133
C       -3.89913682      -5.00788752      -5.27738594
C       -4.74146190      -5.79621888      -6.06434608
C       -6.12044403      -5.75836700      -5.85995560
C       -6.68573938      -4.91923021      -4.88282651
C       -5.80743451      -4.17502543      -4.07243700
N       -8.09422990      -4.93246197      -4.65355248
N       -8.68542059      -3.81748307      -4.02498504
H        1.33083455      -4.93439752      -2.22709544
H        0.93988186      -4.01368995      -3.52722273
H        0.49943497      -2.80683022      -1.47209871
H       -1.92223643      -4.82629783      -3.31086784
H       -4.85429217      -1.66308959      -3.26057886
H       -3.38983654      -0.33463281      -1.82614119
H       -2.82947777      -5.04316967      -5.47574718
H       -4.31012042      -6.43232331      -6.83291214
H       -6.22395789      -3.57243642      -3.27023317
H       -8.55887331      -5.24864757      -5.51404584
H       -8.42959080      -3.81159977      -3.03390488
H       -9.70398843      -3.91961838      -4.02017112
C       -6.94630065      -6.58870132      -6.69787310
C       -7.63795557      -7.28410632      -7.39962901
Br      -8.75630309      -8.40851739      -8.53430896
N       -4.49322054      -0.54373500       2.69206430
N       -3.16835384      -0.13197732       2.46251980
C       -2.88761127       1.26165667       2.50329401
C       -3.62740134       2.12856411       3.33007861
C       -3.36134431       3.51062300       3.41309079
C       -2.28944865       4.00600342       2.65074164
C       -1.50556833       3.15995602       1.86173586
C       -1.79792205       1.79792205       1.79792205
C       -4.18003779       4.40554555       4.26656478
C       -5.56268352       4.20485959       4.41686717
C       -6.33382609       5.03771271       5.23048805
C       -5.73574644       6.10797887       5.89504131
C       -4.36393920       6.37974382       5.74411307
C       -3.60422817       5.49289417       4.95777460
N       -3.75982385       7.44804251       6.47237799
N       -2.54469933       7.98404752       5.99914185
H       -4.53180791      -1.55268333       2.85153381
H       -5.07862447      -0.35304501       1.87545136
H       -2.67295026      -0.57321011       1.67975381
H       -4.42180528       1.69933903       3.93825780
H       -2.05089386       5.06799343       2.65907333
H       -0.67421440       3.57696447       1.29943167
H       -6.06263388       3.39125800       3.89450274
H       -7.39785384       4.84218027       5.33532176
H       -2.53191759       5.65057542       4.88413448
H       -4.48709281       8.13921521       6.69525869
H       -1.78918088       7.31512799       6.17078658
H       -2.28511431       8.80328778       6.55537584
C       -6.57375277       6.93806318       6.72105912
C       -7.27558307       7.63325879       7.41284904
Br      -8.41038330       8.75733130       8.53141484
N        4.51675241       0.53031193       2.65510935
N        3.18726160       0.12664585       2.43828058
C        2.89665737      -1.26455040       2.49135418
C        3.63615913      -2.13081575       3.31906918
C        3.36063489      -3.51023712       3.41418610
C        2.27957160      -4.00327296       2.66334916
C        1.49610754      -3.15726633       1.87388636
C        1.79792205      -1.79792205       1.79792205
C        4.17902756      -4.40490159       4.26821896
C        5.56417010      -4.21329957       4.40694060
C        6.33517452      -5.04583919       5.22101315
C        5.73420007      -6.10679566       5.89777088
C        4.35937180      -6.36955716       5.75886713
C        3.60039330      -5.48290878       4.97159486
N        3.75284501      -7.42803663       6.49936270
N        2.53039062      -7.95853012       6.03896797
H        4.56387835       1.54008669       2.80686674
H        5.09472545       0.32936286       1.83566823
H        2.68934862       0.56578316       1.65592850
H        4.43812845      -1.70301626       3.91825739
H        2.03333599      -5.06339027       2.68123436
H        0.65761686      -3.57224305       1.32075063
H        6.06619223      -3.40723374       3.87496864
H        7.40134409      -4.85737868       5.31663310
H        2.52644720      -5.63323141       4.90694888
H        4.47666729      -8.12289445       6.72200498
H        1.78105999      -7.28283555       6.21119991
H        2.26892888      -8.77175511       6.60309394
C        6.57217606      -6.93696794       6.72373107
C        7.27398095      -7.63223723       7.41547272
Br       8.40874010      -8.75642886       8.53396047
C       -0.00445707       0.01189536      -1.78238275
H       -0.66409135       0.67374010      -2.43557963
H        0.65740317      -0.63156657      -2.45157240
C       -0.90989263      -0.90692880      -0.91072765
C        0.90977584       0.90977584      -0.90977584
C       -0.00465871       1.77757030       0.00794375
H       -0.66225468       2.44313916      -0.64384735
H        0.64322798       2.43503045       0.67728295
C       -1.78241447       0.00034974      -0.00472694
H       -2.45427497      -0.65498947       0.64260836
H       -2.43311707       0.67328779      -0.65473579
C       -0.91132561       0.90220522       0.91563759
C       -0.01476271      -0.02253852       1.78660255
H       -0.67934791      -0.69751639       2.42135241
H        0.63392994       0.61504881       2.47327442
C        0.01484550      -1.77751727      -0.01636693
H        0.67870853      -2.42144646      -0.68295456
H       -0.62264859      -2.45592969       0.64226336
C        1.78714474       0.01002794       0.00389507
H        2.44202412       0.67113390       0.66197326
H        2.45385902      -0.65136977      -0.64189061
C        0.91606151      -0.90478549       0.90901405
