138
Properties=species:S:1:pos:R:3 pbc="F F F"
N        0.47631901       5.14416500      -1.02106583
N        0.91627414       3.83729242      -0.74532977
C        1.74879698       3.19847842      -1.70528655
C        2.62322991       3.94307086      -2.51974330
C        3.47908344       3.34121743      -3.46475723
C        3.45612788       1.93854720      -3.55151864
C        2.63636941       1.17144308      -2.71944772
C        1.79792205       1.79792205      -1.79792205
C        4.36459283       4.15390393      -4.33365136
C        3.95102310       5.40069851      -4.83268867
C        4.78772645       6.17429809      -5.64000231
C        6.05357134       5.70102643      -5.98416885
C        6.49958624       4.44041628      -5.54779356
C        5.65356960       3.70676272      -4.69456463
N        7.81733544       3.99548704      -5.86742187
N        8.09138052       2.61319357      -5.82331462
Br       7.14263653       6.80329597      -7.08782716
H        0.07633294       5.57135983      -0.18296562
H       -0.26289012       5.13615655      -1.72776438
H        0.21840786       3.17811893      -0.38296717
H        2.64309794       5.02406224      -2.39224193
H        4.08000418       1.42041144      -4.27754500
H        2.65852710       0.08811630      -2.80396714
H        2.96085274       5.78797203      -4.59956984
H        4.43978179       7.14106445      -5.99450963
H        6.00973596       2.76111483      -4.29577669
H        8.12219050       4.47622854      -6.72314767
H        8.12268863       2.30452332      -4.84788350
H        9.03656627       2.43398029      -6.17323138
N        0.48425635      -4.58974963      -2.53605657
N       -0.14366334      -3.61569658      -1.73953641
C       -1.37920392      -3.07838106      -2.19497697
C       -2.26533647      -3.84937194      -2.97133566
C       -3.50804504      -3.35716048      -3.41985258
C       -3.85973313      -2.05206366      -3.03439693
C       -3.02295439      -1.28322564      -2.22108019
C       -1.79792205      -1.79792205      -1.79792205
C       -4.40582055      -4.18048410      -4.26584347
C       -3.89144382      -5.05403478      -5.23893168
C       -4.73375265      -5.84052321      -6.02775100
C       -6.11665056      -5.74981991      -5.87229615
C       -6.68492650      -4.85922628      -4.94364331
C       -5.80897646      -4.11720445      -4.12871603
N       -8.09988409      -4.81771061      -4.76264965
N       -8.67294296      -3.66272156      -4.19222419
Br      -7.20737206      -6.84732477      -6.97906282
H        1.23361660      -5.04962770      -2.01464730
H        0.91802816      -4.16170200      -3.35735698
H        0.45125630      -2.87087153      -1.35987873
H       -1.97596412      -4.87074568      -3.21269231
H       -4.79750638      -1.61191502      -3.36853921
H       -3.33673131      -0.28433519      -1.92954404
H       -2.81762675      -5.13167622      -5.39909165
H       -4.29922850      -6.51668653      -6.75944084
H       -6.23097130      -3.47385370      -3.36180247
H       -8.54625456      -5.14768512      -5.62762704
H       -8.45016569      -3.63125633      -3.19367343
H       -9.69401796      -3.73069818      -4.21906179
N       -4.39258795      -0.59426061       2.84322249
N       -3.08833676      -0.15057146       2.56113103
C       -2.84927554       1.25137694       2.55190947
C       -3.59037220       2.12083032       3.37484154
C       -3.36437523       3.51207043       3.40861245
C       -2.33123965       4.01549640       2.59945767
C       -1.54560956       3.16934870       1.81230196
C       -1.79792205       1.79792205       1.79792205
C       -4.18436839       4.40798775       4.25979198
C       -5.55515586       4.17103899       4.45821542
C       -6.32692543       5.00513559       5.26996583
C       -5.74240581       6.11251394       5.88384687
C       -4.38464012       6.42013621       5.68301977
C       -3.62182987       5.53258749       4.90047959
N       -3.79213882       7.52767723       6.36042830
N       -2.60856518       8.08478764       5.83453588
Br      -6.84965478       7.20867207       6.97543281
H       -4.39553888      -1.59855849       3.03367801
H       -5.00753466      -0.44610483       2.03960098
H       -2.60312076      -0.60064500       1.77701820
H       -4.35286874       1.68702020       4.01951317
H       -2.12514468       5.08385740       2.56895854
H       -0.74446106       3.59345364       1.21269583
H       -6.04526689       3.32735494       3.97577279
H       -7.38089195       4.78140271       5.41306122
H       -2.55750407       5.71970378       4.78941963
H       -4.53327612       8.20345160       6.58483900
H       -1.82817348       7.44415482       6.00276715
H       -2.35776810       8.92800624       6.35800359
N        4.42031185       0.58138910       2.80262709
N        3.11025303       0.14608977       2.53473307
C        2.85978364      -1.25388967       2.53888863
C        3.60050912      -2.12267212       3.36286282
C        3.36354066      -3.51170257       3.40981487
C        2.31979461      -4.01321391       2.61318520
C        1.53464195      -3.16708257       1.82553571
C        1.79792205      -1.79792205       1.79792205
C        4.18317373      -4.40736243       4.26161196
C        5.55740807      -4.18001012       4.44699209
C        6.32899939      -5.01377896       5.25924851
C        5.74056410      -6.11134453       5.88685799
C        4.37875898      -6.40949141       5.69954571
C        3.61679746      -5.52211064       4.91598884
N        3.78285968      -7.50664025       6.39074442
N        2.59056264      -8.05831176       5.87901430
Br       6.84777503      -7.20763018       6.97835445
H        4.43294664       1.58713828       2.98485004
H        5.02746025       0.42171924       1.99528981
H        2.62231325       0.59374607       1.75092678
H        4.37172813      -1.68989482       3.99777916
H        2.10481601      -5.08006928       2.59307533
H        0.72521988      -3.58947508       1.23591558
H        6.05037908      -3.34428696       3.95372858
H        7.38587518      -4.79750394       5.39197675
H        2.55012092      -5.70142762       4.81507894
H        4.52030907      -8.18660182       6.61465583
H        1.81678132      -7.40999065       6.04832348
H        2.33722834      -8.89519045       6.41135914
C       -0.00445707       0.01189536      -1.78238275
H       -0.66409135       0.67374010      -2.43557963
H        0.65740317      -0.63156657      -2.45157240
C       -0.90989263      -0.90692880      -0.91072765
C        0.90977584       0.90977584      -0.90977584
C       -0.00465871       1.77757030       0.00794375
H       -0.66225468       2.44313916      -0.64384735
H        0.64322798       2.43503045       0.67728295
C       -1.78241447       0.00034974      -0.00472694
H       -2.45427497      -0.65498947       0.64260836
H       -2.43311707       0.67328779      -0.65473579
C       -0.91132561       0.90220522       0.91563759
C       -0.01476271      -0.02253852       1.78660255
H       -0.67934791      -0.69751639       2.42135241
H        0.63392994       0.61504881       2.47327442
C        0.01484550      -1.77751727      -0.01636693
H        0.67870853      -2.42144646      -0.68295456
H       -0.62264859      -2.45592969       0.64226336
C        1.78714474       0.01002794       0.00389507
H        2.44202412       0.67113390       0.66197326
H        2.45385902      -0.65136977      -0.64189061
C        0.91606151      -0.90478549       0.90901405
