154
Properties=species:S:1:pos:R:3 pbc="F F F"
N        8.31603736       5.75860945     -11.50334611
N        8.44833301       7.11471780     -11.14883713
C        8.25237572       7.49328415      -9.78788900
C        7.48281274       6.71814189      -8.90502020
C        7.23193855       7.14653346      -7.59542746
C        6.44633488       6.33380035      -6.71879636
C        5.77557832       5.65274932      -5.99234493
C        4.90801279       4.78885020      -5.07337840
C        4.21923183       4.11972020      -4.35309503
C        3.39335201       3.33231789      -3.49033498
C        2.68220554       2.24809402      -4.00390409
C        1.88644715       1.47726333      -3.15760023
C        1.79910830       1.79910830      -1.79910830
C        2.48424151       2.90962857      -1.26278434
C        3.30253567       3.65188064      -2.13022157
N        2.43726459       3.17222388       0.13821974
N        2.77696509       4.45920950       0.59822787
C        7.73331072       8.36969573      -7.15121278
C        8.47637857       9.17062014      -8.01706943
C        8.72160766       8.74075118      -9.32565369
Br       9.73052117       9.89055282     -10.45794697
H        8.54694121       5.63152858     -12.49247998
H        7.33237938       5.48261421     -11.43878043
H        9.28917788       7.58618746     -11.50469280
H        7.07473315       5.76582811      -9.23029866
H        2.74730925       1.99449025      -5.05949987
H        1.34194142       0.62855891      -3.56337338
H        3.87229644       4.49586299      -1.75243047
H        1.56401715       2.78393499       0.51590929
H        3.78243039       4.61064188       0.48006426
H        2.63241770       4.51825258       1.60989437
H        7.54156418       8.70952818      -6.13585353
H        8.85403200      10.12787431      -7.66715878
N      -10.24498185     -10.12971123      -5.20329984
N      -10.38438747      -9.77013911      -6.55736136
C       -9.35293327      -9.00416285      -7.17645276
C       -8.47985600      -8.19500838      -6.43111046
C       -7.52660768      -7.38558845      -7.06170334
C       -6.64964190      -6.57401790      -6.27527179
C       -5.92526872      -5.88574780      -5.60965605
C       -5.01298830      -4.99862350      -4.75862957
C       -4.30310499      -4.29336749      -4.09557457
C       -3.45812308      -3.44421038      -3.31367142
C       -3.70891966      -3.27276313      -1.95252087
C       -2.87691185      -2.45227311      -1.19212575
C       -1.79910830      -1.79910830      -1.79910830
C       -1.54415953      -1.93223305      -3.18026184
C       -2.37893739      -2.78793195      -3.91776854
N       -0.39641199      -1.31510685      -3.75974989
N       -0.36280204      -1.12093957      -5.15420509
C       -7.44234257      -7.35841625      -8.45346041
C       -8.31634973      -8.13102875      -9.21668966
C       -9.26961542      -8.93540784      -8.58298926
Br     -10.44006493      -9.95266853      -9.68628749
H      -11.02543866     -10.72749889      -4.91801223
H      -10.34086113      -9.29638832      -4.61652458
H      -10.65704432     -10.53061135      -7.19240248
H       -8.53160572      -8.19283439      -5.34641981
H       -4.54584861      -3.77872875      -1.47672202
H       -3.07346423      -2.33032591      -0.13008358
H       -2.19922749      -2.94385194      -4.97751047
H       -0.14267446      -0.49625353      -3.19311485
H       -0.26420312      -2.02532650      -5.62347838
H        0.48474509      -0.60989141      -5.41562959
H       -6.70533823      -6.73134456      -8.95026310
H       -8.25217073      -8.09575465     -10.30113972
N       -7.75893449       6.10912337      11.70993506
N       -8.06154583       7.40371877      11.24662334
C       -8.03236630       7.65761842       9.84356415
C       -7.27273760       6.87093966       8.96229757
C       -7.18950222       7.18453207       7.59986518
C       -6.40956299       6.36274765       6.72662095
C       -5.74291709       5.67609823       6.00165725
C       -4.88049216       4.80690625       5.08284297
C       -4.19664197       4.13436575       4.36103934
C       -3.37811727       3.34282258       3.49506504
C       -2.51526145       2.38744568       4.03149653
C       -1.72673913       1.61120606       3.18336551
C       -1.79910830       1.79910830       1.79910830
C       -2.64099945       2.78061402       1.23504095
C       -3.44695913       3.52862100       2.10905775
N       -2.75122495       2.90174331      -0.18169954
N       -3.26196591       4.09785723      -0.72187643
C       -7.85237413       8.30406011       7.09778500
C       -8.58997587       9.11699044       7.95710183
C       -8.66756258       8.80235501       9.31809494
Br      -9.67944839       9.96342797      10.43614459
H       -7.88292234       6.06302871      12.72499872
H       -6.76245017       5.92036492      11.57095894
H       -8.90957283       7.82911633      11.64136899
H       -6.74099673       5.99885136       9.33101182
H       -2.45593293       2.23820984       5.10715661
H       -1.06301357       0.86261729       3.60824285
H       -4.13262058       4.27305368       1.71491564
H       -1.88163840       2.55950084      -0.60909639
H       -4.26233811       4.16670617      -0.51603627
H       -3.21863723       4.06625433      -1.74411564
H       -7.79136221       8.55455621       6.04102747
H       -9.09437100       9.99427315       7.56042094
N       10.19395856     -10.18139303       5.20264134
N       10.35105522      -9.80942549       6.55140722
C        9.33397103      -9.02650547       7.17307236
C        8.46156130      -8.21603513       6.42837840
C        7.52323901      -7.39036798       7.06029248
C        6.64654047      -6.57786265       6.27452846
C        5.92240570      -5.88898655       5.60928033
C        5.01050174      -5.00123182       4.75850782
C        4.30105589      -4.29549540       4.09549577
C        3.45676992      -3.44569226       3.31354269
C        3.69520278      -3.29080983       1.94819104
C        2.86381845      -2.46958467       1.18790759
C        1.79910830      -1.79910830       1.79910830
C        1.55712357      -1.91542431       3.18410655
C        2.39067981      -2.77211787       3.92184020
N        0.42182281      -1.28054026       3.76890566
N        0.40464539      -1.07175452       5.16154680
C        7.45367242      -7.34806274       8.45248407
C        8.32757166      -8.12182130       9.21467519
C        9.26593079      -8.94248018       8.57960155
Br      10.43725493      -9.96044533       9.68132069
H       10.96525208     -10.79012233       4.91557536
H       10.29229212      -9.35516490       4.60631700
H       10.62246506     -10.56613207       7.19146102
H        8.50209626      -8.22551365       5.34325001
H        4.52193081      -3.81026404       1.46910452
H        3.05060271      -2.36056995       0.12270105
H        2.22036426      -2.91529974       4.98492591
H        0.17063693      -0.46495364       3.19645228
H        0.30164748      -1.97021518       5.64114535
H       -0.43486738      -0.54930538       5.42633792
H        6.72831702      -6.70833474       8.95029413
H        8.27499002      -8.07477244      10.29930263
C       -0.00445707       0.01189536      -1.78238275
H       -0.66409135       0.67374010      -2.43557963
H        0.65740317      -0.63156657      -2.45157240
C       -0.90989263      -0.90692880      -0.91072765
C        0.90977584       0.90977584      -0.90977584
C       -0.00465871       1.77757030       0.00794375
H       -0.66225468       2.44313916      -0.64384735
H        0.64322798       2.43503045       0.67728295
C       -1.78241447       0.00034974      -0.00472694
H       -2.45427497      -0.65498947       0.64260836
H       -2.43311707       0.67328779      -0.65473579
C       -0.91132561       0.90220522       0.91563759
C       -0.01476271      -0.02253852       1.78660255
H       -0.67934791      -0.69751639       2.42135241
H        0.63392994       0.61504881       2.47327442
C        0.01484550      -1.77751727      -0.01636693
H        0.67870853      -2.42144646      -0.68295456
H       -0.62264859      -2.45592969       0.64226336
C        1.78714474       0.01002794       0.00389507
H        2.44202412       0.67113390       0.66197326
H        2.45385902      -0.65136977      -0.64189061
C        0.91606151      -0.90478549       0.90901405
