133
Properties=species:S:1:pos:R:3 pbc="F F F"
C        0.00000000       0.00000000       0.00000000
N        7.40613333       4.84870543     -10.59344209
N        7.53842898       6.20481378     -10.23893311
C        7.34247170       6.58338013      -8.87798497
C        6.57290872       5.80823786      -7.99511618
C        6.32203452       6.23662944      -6.68552344
C        5.53643086       5.42389632      -5.80889233
C        4.86567430       4.74284529      -5.08244091
C        3.99810876       3.87894617      -4.16347437
C        3.30932780       3.20981618      -3.44319101
C        2.48344798       2.42241387      -2.58043096
C        1.77230151       1.33819000      -3.09400007
C        0.97654312       0.56735930      -2.24769620
C        0.88920428       0.88920428      -0.88920428
C        1.57433749       1.99972454      -0.35288032
C        2.39263164       2.74197662      -1.22031755
N        1.52736056       2.26231985       1.04812376
N        1.86706106       3.54930547       1.50813190
C        6.82340669       7.45979171      -6.24130875
C        7.56647455       8.26071612      -7.10716541
C        7.81170363       7.83084715      -8.41574966
Br       8.82061715       8.98064879      -9.54804294
H        7.63703719       4.72162456     -11.58257595
H        6.42247536       4.57271019     -10.52887641
H        8.37927386       6.67628344     -10.59478878
H        6.16482912       4.85592409      -8.32039464
H        1.83740523       1.08458623      -4.14959585
H        0.43203740      -0.28134511      -2.65346936
H        2.96239242       3.58595896      -0.84252645
H        0.65411312       1.87403096       1.42581331
H        2.87252637       3.70073785       1.38996829
H        1.72251368       3.60834856       2.51979839
H        6.63166016       7.79962415      -5.22594950
H        7.94412798       9.21797029      -6.75725475
N       -5.11206362     -10.76044517      -6.97577206
N       -6.42321347     -10.32011827      -7.23884413
C       -6.70756724      -8.92420458      -7.17206497
C       -5.92361123      -8.04238357      -6.41026797
C       -6.26549134      -6.68963965      -6.28905640
C       -5.44580615      -5.81548961      -5.50792375
C       -4.76046569      -5.09009986      -4.84039495
C       -3.89253301      -4.17116005      -3.97683625
C       -3.22083203      -3.44963330      -3.29186966
C       -2.43033191      -2.58429769      -2.47166321
C       -1.44383832      -3.11791145      -1.64274182
C       -0.66892001      -2.27009047      -0.85258815
C       -0.88920428      -0.88920428      -0.88920428
C       -1.90195136      -0.32903077      -1.69596021
C       -2.64847205      -1.20169294      -2.50476081
N       -2.05708233       1.08668631      -1.77116063
N       -3.27625346       1.61071792      -2.24269909
C       -7.41073235      -6.19855277      -6.91522203
C       -8.22091372      -7.05952372      -7.65391864
C       -7.87789450      -8.41093112      -7.76947483
Br      -9.03652736      -9.53232517      -8.78045635
H       -5.04621006     -11.77118230      -7.12384534
H       -4.90379755     -10.63943272      -5.98083169
H       -6.85892061     -10.70546705      -8.08595841
H       -5.03164155      -8.40288813      -5.90661817
H       -1.26937067      -4.19094748      -1.61126916
H        0.10387007      -2.69248221      -0.21554950
H       -3.41692332      -0.80943763      -3.16451689
H       -1.70472415       1.50229542      -0.89990204
H       -3.36327031       1.42569333      -3.24571896
H       -3.26644602       2.63219317      -2.17681099
H       -7.68324669      -5.14939638      -6.82459074
H       -9.11807512      -6.67179406      -8.12948385
N       -5.20642719      10.80301994       6.83883372
N       -6.49962308      10.33790574       7.14464705
C       -6.75101731       8.93433602       7.11848347
C       -5.96411691       8.05311905       6.35902679
C       -6.27537613       6.68996884       6.27884244
C       -5.45342175       5.81680106       5.49899671
C       -4.76666609       5.09187396       4.83242046
C       -3.89737134       4.17307217       3.97008579
C       -3.22476162       3.45124808       3.28632529
C       -2.43313186       2.58522485       2.46793610
C       -1.48030606       3.12182005       1.60236547
C       -0.70395774       2.27366688       0.81397401
C       -0.88920428       0.88920428       0.88920428
C       -1.86814657       0.32488754       1.73390823
C       -2.61627781       1.19900957       2.53963843
N       -1.98649229      -1.09186772       1.84693208
N       -3.18068819      -1.63328823       2.36083468
C       -7.39277903       6.18706158       6.94466655
C       -8.20593099       7.04624095       7.68218414
C       -7.89363641       8.40794349       7.75672056
Br      -9.05490241       9.52572132       8.76868515
H       -5.16195746      11.81839013       6.96089011
H       -5.01922923      10.66257123       5.84226150
H       -6.92419574      10.73342191       7.99272842
H       -5.09367120       8.42244962       5.82502702
H       -1.33313951       4.19763996       1.54080783
H        0.04264631       2.69869503       0.14811292
H       -3.35874190       0.80476410       3.22737183
H       -1.64505415      -1.52022560       0.97750223
H       -3.24809185      -1.42575043       3.36095452
H       -3.14730077      -2.65554553       2.31930861
H       -7.64145893       5.12974054       6.88603435
H       -9.08156987       6.64888454       8.18889861
N        7.03997763      -5.06960930      10.73869392
N        7.28320105      -6.38855916      10.31041566
C        7.19729601      -6.68786146       8.91867932
C        6.43437955      -5.90526227       8.03662094
C        6.29389271      -6.26097547       6.68931922
C        5.51213368      -5.44234456       5.81474128
C        4.84414564      -4.75765910       5.08915576
C        3.98000441      -3.89035173       4.17017317
C        3.29447104      -3.21906147       3.44880249
C        2.47341457      -2.42906662       2.58381162
C        1.66181663      -1.42722279       3.11545216
C        0.87083314      -0.65295307       2.26781243
C        0.88920428      -0.88920428       0.88920428
C        1.67804042      -1.91734494       0.33155699
C        2.48827222      -2.66315323       1.20350036
N        1.73532846      -2.08928439      -1.08305619
N        2.18707400      -3.31959013      -1.59842950
C        6.90145540      -7.41875318       6.20429858
C        7.64074069      -8.22754600       7.06606939
C        7.77557050      -7.87064439       8.41208557
Br       8.78614615      -9.02801270       9.53515004
H        7.20030678      -4.99405172      11.74687919
H        6.04613404      -4.85138334      10.62654456
H        8.12968781      -6.82952836      10.69112991
H        5.94496993      -5.00359421       8.39258371
H        1.64455902      -1.24031379       4.18671450
H        0.24741350       0.13177078       2.68851893
H        3.13479915      -3.44345805       0.81262063
H        0.86341500      -1.73171931      -1.49280354
H        3.19109418      -3.41595255      -1.42375080
H        2.10965046      -3.32055528      -2.61914189
H        6.79579119      -7.70203373       5.15940890
H        8.10170014      -9.13439180       6.68326108
