162
Properties=species:S:1:pos:R:3 pbc="F F F"
N        8.31603736       5.75860945     -11.50334611
N        8.44833301       7.11471780     -11.14883713
C        8.25237572       7.49328415      -9.78788900
C        7.48281274       6.71814189      -8.90502020
C        7.23193855       7.14653346      -7.59542746
C        6.44633488       6.33380035      -6.71879636
C        5.77557832       5.65274932      -5.99234493
C        4.90801279       4.78885020      -5.07337840
C        4.21923183       4.11972020      -4.35309503
C        3.39335201       3.33231789      -3.49033498
C        2.68220554       2.24809402      -4.00390409
C        1.88644715       1.47726333      -3.15760023
C        1.79910830       1.79910830      -1.79910830
C        2.48424151       2.90962857      -1.26278434
C        3.30253567       3.65188064      -2.13022157
N        2.43726459       3.17222388       0.13821974
N        2.77696509       4.45920950       0.59822787
C        7.73331072       8.36969573      -7.15121278
C        8.47637857       9.17062014      -8.01706943
C        8.72160766       8.74075118      -9.32565369
H        8.54694121       5.63152858     -12.49247998
H        7.33237938       5.48261421     -11.43878043
H        9.28917788       7.58618746     -11.50469280
H        7.07473315       5.76582811      -9.23029866
H        2.74730925       1.99449025      -5.05949987
H        1.34194142       0.62855891      -3.56337338
H        3.87229644       4.49586299      -1.75243047
H        1.56401715       2.78393499       0.51590929
H        3.78243039       4.61064188       0.48006426
H        2.63241770       4.51825258       1.60989437
H        7.54156418       8.70952818      -6.13585353
H        8.85403200      10.12787431      -7.66715878
C        9.48498613       9.61073042     -10.18238551
C       10.12431560      10.33933804     -10.89989841
Br      11.15805728      11.51743494     -12.06005609
N       -9.63808060     -10.68215378      -5.25775854
N       -9.98125717     -10.19665529      -6.53397548
C       -9.12360645      -9.24672062      -7.16322180
C       -8.25924015      -8.42273928      -6.42399540
C       -7.48489092      -7.43830511      -7.05070345
C       -6.61190418      -6.61595234      -6.27107507
C       -5.89080605      -5.92077078      -5.60909574
C       -4.98330355      -5.02661124      -4.76032658
C       -4.27866867      -4.31617561      -4.09720279
C       -3.44189375      -3.46018309      -3.31392804
C       -3.54075848      -3.47061058      -1.92283460
C       -2.71629160      -2.64213910      -1.16288000
C       -1.79910830      -1.79910830      -1.79910830
C       -1.70279303      -1.74818413      -3.20567727
C       -2.52333279      -2.61422649      -3.94707860
N       -0.70930165      -0.93511120      -3.82685588
N       -0.86870817      -0.58709337      -5.18214516
C       -7.57575369      -7.24907994      -8.42938560
C       -8.44722780      -8.03517655      -9.18166380
C       -9.22176311      -9.01498017      -8.55126924
H      -10.30754331     -11.39887510      -4.96453137
H       -9.75160698      -9.93606775      -4.56609930
H      -10.24514136     -10.91089235      -7.22402444
H       -8.17724179      -8.54547111      -5.34814703
H       -4.25254846      -4.12451465      -1.42423627
H       -2.79299479      -2.66204591      -0.07883302
H       -2.45924819      -2.63015092      -5.03119079
H       -0.47886360      -0.15813809      -3.19504116
H       -0.73029639      -1.41578071      -5.76693090
H       -0.12065865       0.04970540      -5.46982268
H       -6.97834159      -6.48570145      -8.92290285
H       -8.52102820      -7.87400539     -10.25403150
C      -10.11378664      -9.79180361      -9.37251181
C      -10.86085635     -10.44239324     -10.06030246
Br     -12.06880489     -11.49434165     -11.17240177
N       -8.39572979       5.71522561      11.46703751
N       -8.50438417       7.07779995      11.12970382
C       -8.28425749       7.47229273       9.77699866
C       -7.51318981       6.69871126       8.89407376
C       -7.23818771       7.14154622       7.59416554
C       -6.45168695       6.33007137       6.71717326
C       -5.78029473       5.64978899       5.99058885
C       -4.91196127       4.78659674       5.07168337
C       -4.22247011       4.11789661       4.35168034
C       -3.39554585       3.33099459       3.48946444
C       -2.70662937       2.22998344       3.99759085
C       -1.90982233       1.45984374       3.15164464
C       -1.79910830       1.79910830       1.79910830
C       -2.46133693       2.92636094       1.26895655
C       -3.28136378       3.66795115       2.13532295
N       -2.39119930       3.20753580      -0.12746638
N       -2.70669765       4.50534787      -0.57409881
C       -7.71642567       8.37758638       7.16020718
C       -8.46041095       9.17680941       8.02684779
C       -8.72977529       8.73243243       9.32580481
H       -8.64214476       5.57777603      12.45102898
H       -7.41515890       5.42644249      11.41217263
H       -9.34354434       7.55601678      11.48049703
H       -7.12283801       5.73640693       9.21161498
H       -2.78994538       1.96280617       5.04854783
H       -1.38276790       0.59811660       3.55298922
H       -3.83412398       4.52492444       1.76154148
H       -1.51819301       2.81233205      -0.49848220
H       -3.71153447       4.66915863      -0.46768510
H       -2.54724464       4.57628827      -1.58275699
H       -7.50586579       8.72865422       6.15242588
H       -8.81993062      10.14396757       7.68516691
C       -9.49298934       9.60110612      10.18400660
C      -10.13218112      10.32862034      10.90275061
Br     -11.16570015      11.50494930      12.06489887
N        9.61558146     -10.70024373       5.26216773
N        9.96605682     -10.21090235       6.53492877
C        9.11495981      -9.25482257       7.16376650
C        8.25094602      -8.43032322       6.42470559
C        7.48328115      -7.44010080       7.05051752
C        6.61047264      -6.61736123       6.27109772
C        5.88951278      -5.92193483       5.60922496
C        4.98219893      -5.02753226       4.76051018
C        4.27776034      -4.31692513       4.09736159
C        3.44128695      -3.46071177       3.31400615
C        3.53433235      -3.47730013       1.92257118
C        2.71014981      -2.64856204       1.16259885
C        1.79910830      -1.79910830       1.79910830
C        1.70884396      -1.74197056       3.20583990
C        2.52886711      -2.60833929       3.94743148
N        0.72130937      -0.92221963       3.82773973
N        0.88777773      -0.56926683       5.18090214
C        7.58064762      -7.24555671       8.42801490
C        8.45197988      -8.03214753       9.17994074
C        9.21983466      -9.01775549       8.55042238
H       10.28085261     -11.42094391       4.96915325
H        9.72931902      -9.95750101       4.56695399
H       10.22984833     -10.92336995       7.22683986
H        8.16397578      -8.55716002       5.34972412
H        4.24133721      -4.13620884       1.42375332
H        2.78226943      -2.67326826       0.07833602
H        2.46921802      -2.61951580       5.03185608
H        0.49146450      -0.14691515       3.19366320
H        0.74837010      -1.39494794       5.76968997
H        0.14356769       0.07181546       5.46902369
H        6.98845013      -6.47767125       8.92082450
H        8.53089676      -7.86685241      10.25131592
C       10.11204061      -9.79487350       9.37118796
C       10.85926309     -10.44570984      10.05857913
Br      12.06745864     -11.49805716      11.17003252
C       -0.00445707       0.01189536      -1.78238275
H       -0.66409135       0.67374010      -2.43557963
H        0.65740317      -0.63156657      -2.45157240
C       -0.90989263      -0.90692880      -0.91072765
C        0.90977584       0.90977584      -0.90977584
C       -0.00465871       1.77757030       0.00794375
H       -0.66225468       2.44313916      -0.64384735
H        0.64322798       2.43503045       0.67728295
C       -1.78241447       0.00034974      -0.00472694
H       -2.45427497      -0.65498947       0.64260836
H       -2.43311707       0.67328779      -0.65473579
C       -0.91132561       0.90220522       0.91563759
C       -0.01476271      -0.02253852       1.78660255
H       -0.67934791      -0.69751639       2.42135241
H        0.63392994       0.61504881       2.47327442
C        0.01484550      -1.77751727      -0.01636693
H        0.67870853      -2.42144646      -0.68295456
H       -0.62264859      -2.45592969       0.64226336
C        1.78714474       0.01002794       0.00389507
H        2.44202412       0.67113390       0.66197326
H        2.45385902      -0.65136977      -0.64189061
C        0.91606151      -0.90478549       0.90901405
