138
Properties=species:S:1:pos:R:3 pbc="F F F"
C        1.77432694       1.77432694      -1.77432694
C        1.59477134       3.11130420      -2.02372042
C        2.64437831       3.51965396      -2.89490055
C        3.43495537       2.39799908      -3.14695684
N        2.88113246       1.34882593      -2.44802454
H        3.23792516       0.40444924      -2.43672414
C        4.56566884       2.43956725      -3.97471342
C        4.91699022       3.66271239      -4.57763493
C        4.12521434       4.79512002      -4.32757473
C        2.99685736       4.74055484      -3.49600822
C        6.09660131       3.75044666      -5.45937542
C        6.23567174       2.88485306      -6.55611324
C        7.34490197       2.94714092      -7.41268369
C        8.34736219       3.90237364      -7.17056811
C        8.20393879       4.75995259      -6.07901734
C        7.10107379       4.70672820      -5.21493467
N        9.30608259       5.58512373      -6.06592102
H        9.48111845       6.31244533      -5.38792283
C       10.12614254       5.27509899      -7.11015709
C        9.57071714       4.23931693      -7.81712553
Br      11.73295995       6.13016362      -7.49630905
H        0.80279457       3.73528425      -1.63154227
H        5.16394242       1.54774060      -4.13895340
H        4.37494549       5.74536163      -4.79685925
H        2.40191413       5.63298784      -3.32504505
H        5.46144630       2.14893553      -6.76718779
H        7.42184448       2.26639508      -8.25516921
H        7.02886795       5.38360462      -4.36818668
H        9.98514090       3.76976765      -8.69927435
C       -1.77432694      -1.77432694      -1.77432694
C       -1.89070033      -3.13919454      -1.69990110
C       -2.81458913      -3.53649286      -2.70785083
C       -3.23155537      -2.38026130      -3.36809463
N       -2.58206534      -1.32072159      -2.77519599
H       -2.68496583      -0.35240039      -3.04173233
C       -4.14872401      -2.40308244      -4.42814307
C       -4.66917460      -3.64351926      -4.84464368
C       -4.25337858      -4.81067673      -4.18385378
C       -3.33593265      -4.77411790      -3.12336987
C       -5.63354414      -3.71392869      -5.95895056
C       -5.32991360      -3.14195043      -7.20477401
C       -6.22621513      -3.19590787      -8.28260358
C       -7.46400634      -3.84084843      -8.11544918
C       -7.76046881      -4.40740254      -6.87503737
C       -6.87396699      -4.35887877      -5.78989089
N       -9.01451627      -4.96689155      -6.97571951
H       -9.49778112      -5.45073105      -6.23297445
C       -9.50604256      -4.77275351      -8.23260255
C       -8.57915722      -4.07954169      -8.96846068
Br     -11.16638397      -5.36065875      -8.83238990
H       -1.37516619      -3.78903864      -1.00541626
H       -4.45872141      -1.48069482      -4.91122019
H       -4.63555051      -5.77918324      -4.50243262
H       -3.03057787      -5.69472879      -2.63464036
H       -4.36961339      -2.65163512      -7.35632110
H       -5.96068551      -2.74747965      -9.23524362
H       -7.14385787      -4.80162944      -4.83517193
H       -8.67852476      -3.77411821     -10.00153992
C       -1.77432694       1.77432694       1.77432694
C       -2.72911265       1.34149248       2.65919083
C       -3.30140496       2.49974441       3.25778345
C       -2.66352434       3.61091932       2.70546764
N       -1.73523217       3.13720439       1.80554636
H       -1.11872497       3.71127665       1.24909691
C       -2.98361460       4.92620976       3.07012516
C       -3.99100571       5.13455065       4.03178119
C       -4.63648029       4.02008358       4.59134522
C       -4.30581970       2.70875779       4.21884292
C       -4.36258518       6.50226633       4.44157188
C       -4.73254536       7.46013992       3.48395276
C       -5.09306446       8.76700840       3.84465374
C       -5.08623668       9.13190982       5.20215744
C       -4.71755065       8.17583896       6.14951911
C       -4.35383344       6.86720995       5.80169327
N       -4.79227800       8.78066265       7.38418668
H       -4.58204283       8.33437838       8.26506540
C       -5.19724490      10.07454853       7.23960520
C       -5.38862492      10.33236509       5.90616959
Br      -5.44435251      11.27847199       8.63660811
H       -2.99569214       0.31266588       2.86126308
H       -2.45738162       5.76676275       2.62649205
H       -5.42712208       4.16404772       5.32599657
H       -4.82600210       1.86712359       4.66682132
H       -4.75783016       7.19036429       2.42937517
H       -5.37838857       9.48416677       3.08085343
H       -4.06161555       6.15278401       6.56625968
H       -5.70963672      11.27069476       5.47385143
C        1.77432694      -1.77432694       1.77432694
C        2.59735609      -1.34713528       2.78530460
C        3.22557784      -2.50268336       3.33067161
C        2.75400496      -3.60649000       2.61941634
N        1.86838140      -3.13147032       1.67813121
H        1.36491560      -3.70070750       1.01347543
C        3.16909558      -4.91717811       2.89367583
C        4.10111044      -5.12822393       3.92800317
C        4.57922529      -4.02118960       4.64749421
C        4.15476423      -2.71460536       4.36405083
C        4.56835817      -6.49069632       4.24736890
C        5.11686997      -7.31112638       3.24864169
C        5.57154203      -8.60941942       3.52376514
C        5.47833141      -9.10670728       4.83526525
C        4.93218912      -8.28692767       5.82379193
C        4.47300855      -6.98846045       5.56126766
N        4.95477501      -9.00236112       6.99999121
H        4.62238450      -8.66679498       7.89230713
C        5.49789073     -10.23349048       6.78001742
C        5.83376678     -10.33897228       5.45442053
Br       5.73622725     -11.54314924       8.08005613
H        2.74086543      -0.32365289       3.10510278
H        2.77139955      -5.75353907       2.32569781
H        5.31058050      -4.16545453       5.44113134
H        4.54596410      -1.87815255       4.93583037
H        5.21044298      -6.93657508       2.23055155
H        5.99470669      -9.21826009       2.73044199
H        4.04321534      -6.38302702       6.35441688
H        6.28432833     -11.19673385       4.97312072
C       -0.00445707       0.01189536      -1.78238275
H       -0.66409135       0.67374010      -2.43557963
H        0.65740317      -0.63156657      -2.45157240
C       -0.90989263      -0.90692880      -0.91072765
C        0.90977584       0.90977584      -0.90977584
C       -0.00465871       1.77757030       0.00794375
H       -0.66225468       2.44313916      -0.64384735
H        0.64322798       2.43503045       0.67728295
C       -1.78241447       0.00034974      -0.00472694
H       -2.45427497      -0.65498947       0.64260836
H       -2.43311707       0.67328779      -0.65473579
C       -0.91132561       0.90220522       0.91563759
C       -0.01476271      -0.02253852       1.78660255
H       -0.67934791      -0.69751639       2.42135241
H        0.63392994       0.61504881       2.47327442
C        0.01484550      -1.77751727      -0.01636693
H        0.67870853      -2.42144646      -0.68295456
H       -0.62264859      -2.45592969       0.64226336
C        1.78714474       0.01002794       0.00389507
H        2.44202412       0.67113390       0.66197326
H        2.45385902      -0.65136977      -0.64189061
C        0.91606151      -0.90478549       0.90901405
