154
Properties=species:S:1:pos:R:3 pbc="F F F"
C        1.77437637       1.77437637      -1.77437637
C        3.13655316       1.90951437      -1.68340759
C        3.53486530       2.83283415      -2.69153494
C        2.37989154       3.23052648      -3.36950888
N        1.32294185       2.56458502      -2.79004540
H        0.35652049       2.65079303      -3.06963971
C        2.40213751       4.14769572      -4.42858483
C        3.64413225       4.67620411      -4.80309914
C        4.81369642       4.29251291      -4.14507264
C        4.77326477       3.37170096      -3.08945237
C        3.71000896       5.63310197      -5.86549785
C        3.75990918       6.45102331      -6.74328567
C        3.81394991       7.51353883      -7.84480255
C        3.84529861       8.36483683      -8.69112697
C        3.87079881       9.39796127      -9.68150553
C        2.69032961       9.75703369     -10.33408504
C        2.68269953      10.78042945     -11.29128494
C        3.88281266      11.45240463     -11.59193072
C        5.05163848      11.06977312     -10.92841416
C        5.07801970      10.04655045      -9.97120335
N        6.06516397      11.87370430     -11.40116921
H        7.02953903      11.83072183     -11.10499842
C        5.56934859      12.74544609     -12.32474226
C        4.22545029      12.51589459     -12.47488928
Br       6.56915598      14.03279850     -13.22223093
H        3.78341606       1.41009379      -0.97446141
H        1.48920715       4.44307491      -4.93638120
H        5.77265530       4.71023119      -4.44421205
H        5.68925280       3.08256347      -2.58235344
H        1.75844669       9.24640593     -10.10071150
H        1.75738514      11.05411850     -11.78992092
H        5.99915074       9.77172214      -9.46673433
H        3.55411196      13.04759604     -13.13598639
C       -1.77437637      -1.77437637      -1.77437637
C       -3.13050882      -1.65507525      -1.94389105
C       -3.53342987      -2.68480649      -2.84099803
C       -2.38709226      -3.40326161      -3.18957303
N       -1.32962375      -2.82136623      -2.52658229
H       -0.36848623      -3.12572809      -2.58273891
C       -2.41764456      -4.50127283      -4.05950067
C       -3.65994111      -4.87720188      -4.58629250
C       -4.81984012      -4.17387073      -4.25757112
C       -4.77042496      -3.07614100      -3.38785214
C       -3.74015278      -6.00679451      -5.46166148
C       -3.80767464      -6.96718229      -6.17936123
C       -3.89156644      -8.20862353      -7.07210132
C       -3.95340263      -9.19785555      -7.75000422
C       -4.02257685     -10.39295237      -8.53473640
C       -2.84802796     -11.07328285      -8.86013753
C       -2.88889202     -12.25779497      -9.60772693
C       -4.13283987     -12.76391241     -10.03039572
C       -5.29317552     -12.06059887      -9.69605136
C       -5.27042211     -10.87307358      -8.95227780
N       -6.35524768     -12.76091233     -10.22387747
H       -7.32611031     -12.49515149     -10.14399749
C       -5.90009143     -13.87507164     -10.86437388
C       -4.53213399     -13.91244352     -10.77165665
Br      -6.97636494     -15.13098888     -11.71683159
H       -3.77143701      -0.91831063      -1.47822362
H       -1.51240138      -5.04510219      -4.31115970
H       -5.77932642      -4.47548236      -4.67228977
H       -5.67978051      -2.53795291      -3.13643629
H       -1.88438895     -10.69105530      -8.53011987
H       -1.96880493     -12.78093350      -9.85168612
H       -6.18723136     -10.34834653      -8.70202932
H       -3.88236196     -14.67463084     -11.18070158
C       -1.77437637       1.77437637       1.77437637
C       -1.39230533       2.93018302       2.40698677
C       -2.52620482       3.41251799       3.12051159
C       -3.57312824       2.51659212       2.89020653
N       -3.08495340       1.53057259       2.06204628
H       -3.61433260       0.74097974       1.72164089
C       -4.84686557       2.68111133       3.45044117
C       -5.05441352       3.79504053       4.27398145
C       -4.02667909       4.70762680       4.51697609
C       -2.75939616       4.52895073       3.94607121
C       -6.33419407       3.98974977       4.88466494
C       -7.40253006       4.13956724       5.41212086
C       -8.75829921       4.31061829       6.10337379
C       -9.81509377       4.42396160       6.66220704
C      -11.06785913       4.53710012       7.34530636
C      -12.08467611       3.61907575       7.07769648
C      -13.31265113       3.69307427       7.74868852
C      -13.51599789       4.70620127       8.70494885
C      -12.48390301       5.61588652       8.95003622
C      -11.25117865       5.55867505       8.28591979
N      -12.93682499       6.48935680       9.91385568
H      -12.40857207       7.26010545      10.29658177
C      -14.20528861       6.15183630      10.28241204
C      -14.60198832       5.05781675       9.55642908
Br     -15.21624147       7.04135828      11.56658567
H       -0.41124153       3.38486679       2.37186294
H       -5.64236695       1.96773334       3.25856297
H       -4.19934013       5.56880608       5.15895233
H       -1.96597401       5.24372554       4.14447016
H      -11.93084434       2.82955701       6.34516278
H      -14.09532895       2.97085007       7.53524554
H      -10.46392686       6.27534542       8.49833492
H      -15.55792356       4.55575077       9.62402007
C        1.77437637      -1.77437637       1.77437637
C        1.34905858      -2.79900132       2.58141522
C        2.50244569      -3.33587863       3.22091007
C        3.60457297      -2.60517262       2.77018132
N        3.12898998      -1.66287220       1.88571009
H        3.69551688      -0.98573776       1.39569860
C        4.91174759      -2.86231139       3.20435908
C        5.09600509      -3.89697038       4.13046003
C        4.01254695      -4.64507826       4.59365677
C        2.71197508      -4.37592444       4.14651858
C        6.41202697      -4.17914064       4.61744116
C        7.51416246      -4.40021762       5.03983808
C        8.91757790      -4.65957588       5.59513751
C       10.01613544      -4.83984429       6.04528267
C       11.32324237      -5.03035893       6.59666431
C       12.39351115      -4.27822974       6.10970745
C       13.67894088      -4.42841773       6.64705532
C       13.88625925      -5.34867691       7.69221184
C       12.79907123      -6.09316177       8.15759275
C       11.50797037      -5.95820506       7.62959806
N       13.26872043      -6.90535560       9.16596144
H       12.71053233      -7.55943213       9.69529483
C       14.60188264      -6.68744495       9.35020936
C       15.02348554      -5.73572453       8.45702409
Br      15.65947271      -7.54887086      10.61584185
H        0.32745408      -3.13136279       2.70915439
H        5.75067954      -2.27675250       2.84123123
H        4.16768536      -5.44589028       5.31352290
H        1.87573996      -4.96240599       4.51602377
H       12.23807160      -3.56026991       5.30722261
H       14.50354712      -3.83491026       6.26296718
H       10.67933058      -6.54578600       8.01249063
H       16.02942876      -5.35001298       8.35825264
C       -0.00445707       0.01189536      -1.78238275
H       -0.66409135       0.67374010      -2.43557963
H        0.65740317      -0.63156657      -2.45157240
C       -0.90989263      -0.90692880      -0.91072765
C        0.90977584       0.90977584      -0.90977584
C       -0.00465871       1.77757030       0.00794375
H       -0.66225468       2.44313916      -0.64384735
H        0.64322798       2.43503045       0.67728295
C       -1.78241447       0.00034974      -0.00472694
H       -2.45427497      -0.65498947       0.64260836
H       -2.43311707       0.67328779      -0.65473579
C       -0.91132561       0.90220522       0.91563759
C       -0.01476271      -0.02253852       1.78660255
H       -0.67934791      -0.69751639       2.42135241
H        0.63392994       0.61504881       2.47327442
C        0.01484550      -1.77751727      -0.01636693
H        0.67870853      -2.42144646      -0.68295456
H       -0.62264859      -2.45592969       0.64226336
C        1.78714474       0.01002794       0.00389507
H        2.44202412       0.67113390       0.66197326
H        2.45385902      -0.65136977      -0.64189061
C        0.91606151      -0.90478549       0.90901405
