125
Properties=species:S:1:pos:R:3 pbc="F F F"
C        0.00000000       0.00000000       0.00000000
C        0.88378857       0.88378857      -0.88378857
C        1.87862470       0.29432730      -1.66054594
C        2.69701263       1.08286704      -2.47902710
C        2.50315240       2.47765930      -2.50879875
C        1.50203351       3.03515100      -1.71566385
C        0.67154430       2.26564895      -0.89105559
N        1.53310634       4.39492292      -1.92636098
H        0.91060656       5.05594012      -1.48547390
C        2.50927886       4.72691723      -2.83497801
C        3.12719210       3.54907804      -3.20753474
C        2.75092439       6.07303217      -3.25104679
C        2.32330009       7.26919297      -2.70869042
C        2.83278053       8.32949657      -3.50987654
C        3.56869501       7.74637245      -4.53958461
N        3.50888213       6.38385399      -4.35453581
H        3.94832060       5.70520226      -4.95872548
C        4.21243511       8.49787277      -5.53098728
C        4.09498319       9.88888727      -5.45372755
C        3.37129470      10.50452840      -4.43505586
C        2.73428934       9.73353242      -3.45457737
H        2.02986486      -0.78196610      -1.64065672
H        3.47129191       0.62047697      -3.08423408
H       -0.10248939       2.72423343      -0.28529172
H        3.94849810       3.45194169      -3.90427661
H        1.71232272       7.38669790      -1.82422332
H        4.77690397       8.01903770      -6.32374473
H        3.29237995      11.58774332      -4.39045449
H        2.16995574      10.21621551      -2.66198315
C        4.73861368      10.70209426      -6.45274416
C        5.27765421      11.38315511      -7.28942058
Br       6.14923716      12.48437291      -8.64225557
C       -0.88378857      -0.88378857      -0.88378857
C       -2.26911240      -0.80155760      -0.76282794
C       -3.09739696      -1.59826832      -1.56324149
C       -2.51496988      -2.48280284      -2.49183772
C       -1.12572979      -2.54345051      -2.58366806
C       -0.27868927      -1.75525154      -1.79430803
N       -0.82733581      -3.47890323      -3.54815120
H        0.10853334      -3.72736088      -3.83319304
C       -1.97504492      -4.01017691      -4.08595225
C       -3.03666957      -3.40666469      -3.44047061
C       -1.95800332      -4.99530136      -5.12169868
C       -0.92570281      -5.78310164      -5.59237903
C       -1.42991318      -6.59588077      -6.64635969
C       -2.77827104      -6.27834609      -6.79803494
N       -3.07223101      -5.31507368      -5.85996725
H       -3.97986392      -4.88933700      -5.74304742
C       -3.59663258      -6.88561943      -7.75904315
C       -3.00616769      -7.84888574      -8.58254458
C       -1.66262726      -8.19375403      -8.45449767
C       -0.86218038      -7.57281148      -7.48740728
H       -2.72160219      -0.11898446      -0.04796883
H       -4.17718116      -1.53143067      -1.46739112
H        0.79999881      -1.81966133      -1.88737325
H       -4.08547154      -3.60296473      -3.61628014
H        0.09075197      -5.79059698      -5.22339892
H       -4.64304625      -6.61820271      -7.85843744
H       -1.22132550      -8.94632558      -9.10292669
H        0.18530514      -7.84304679      -7.39041275
C       -3.80870875      -8.49833353      -9.58640982
C       -4.48083689      -9.04224605     -10.42714696
Br      -5.56761123      -9.92170660     -11.78654781
C       -0.88378857       0.88378857       0.88378857
C       -1.80170097       1.74495482       0.28684215
C       -2.62280554       2.56045499       1.07564623
C       -2.51099176       2.50019657       2.47842212
C       -1.57904655       1.63115697       3.04264484
C       -0.74902606       0.80603438       2.27318841
N       -1.67138949       1.77462202       4.40837873
H       -1.11610357       1.25998076       5.07593625
C       -2.63721977       2.69458765       4.73936667
C       -3.16975574       3.16082939       3.55321974
C       -2.95469285       3.02745040       6.09286010
C       -2.27055694       2.76656580       7.26406073
C       -3.02081986       3.30353983       8.34779396
C       -4.16398266       3.88637178       7.80429763
N       -4.09453744       3.71189262       6.44084187
H       -4.79561869       4.02898005       5.78764961
C       -5.14293693       4.50994188       8.58841635
C       -4.93271096       4.53448369       9.97040337
C       -3.79881075       3.96593986      10.54612836
C       -2.83305096       3.34620563       9.74314254
H       -1.89119892       1.79281571      -0.79545916
H       -3.33818530       3.23029279       0.60752487
H       -0.03345246       0.13612189       2.73746141
H       -3.94831152       3.90448135       3.45192353
H       -1.32438234       2.24991270       7.34894890
H       -6.02546729       4.95368848       8.14053063
H       -3.65174290       3.99612330      11.62271156
H       -1.95035718       2.90295001      10.19484721
C       -5.91377829       5.16322877      10.81644505
C       -6.73542217       5.68980277      11.52500495
Br      -8.06395085       6.54122840      12.67068639
C        0.88378857      -0.88378857       0.88378857
C        0.29359771      -1.87393497       1.66596526
C        1.08276398      -2.69635018       2.47979261
C        2.47904268      -2.51204459       2.49852318
C        3.03625268      -1.50911498       1.70748070
C        2.26639564      -0.67634393       0.88550928
N        4.39613800      -1.54091673       1.91733552
H        5.05849849      -0.92705146       1.46647062
C        4.73105329      -2.53586494       2.80425586
C        3.55266584      -3.15025405       3.18088498
C        6.08108911      -2.80271335       3.19120090
C        7.22645540      -2.04858838       3.02613969
C        8.31990938      -2.77115530       3.58108895
C        7.80861352      -3.96877282       4.07726573
N        6.45373616      -3.95807598       3.83545979
H        5.82312669      -4.70632407       4.08279758
C        8.61088030      -4.93883336       4.69158150
C        9.97707353      -4.66183344       4.79869104
C       10.52028887      -3.47260101       4.31798909
C        9.69970293      -2.51683761       3.70585860
H       -0.78359002      -2.01942655       1.65271894
H        0.61998046      -3.46810046       3.08792203
H        2.72533439       0.09541256       0.27711394
H        3.45538990      -3.97066279       3.87866371
H        7.28734110      -1.07366969       2.56223314
H        8.18823515      -5.86448401       5.06696725
H       11.58489171      -3.27405014       4.41163591
H       10.12612419      -1.59086003       3.33117018
C       10.84095576      -5.63119800       5.42129835
C       11.56445712      -6.44304082       5.94273196
Br      12.73429763      -7.75572199       6.78584602
