138
Properties=species:S:1:pos:R:3 pbc="F F F"
C        1.79369259       1.79369259      -1.79369259
C        2.78852872       1.20423133      -2.57044997
C        3.60691665       1.99277107      -3.38893112
C        3.41305642       3.38756332      -3.41870277
C        2.41193754       3.94505502      -2.62556788
C        1.58144833       3.17555298      -1.80095961
N        2.44301037       5.30482695      -2.83626500
H        1.82051059       5.96584414      -2.39537792
C        3.41918288       5.63682125      -3.74488203
C        4.03709612       4.45898206      -4.11743876
C        3.66082841       6.98293620      -4.16095082
C        3.23320411       8.17909699      -3.61859444
C        3.74268456       9.23940059      -4.41978056
C        4.47859904       8.65627648      -5.44948863
N        4.41878615       7.29375801      -5.26443984
H        4.85822462       6.61510629      -5.86862950
C        5.12233914       9.40777679      -6.44089130
C        5.00488722      10.79879130      -6.36363157
C        4.28119873      11.41443243      -5.34495988
C        3.64419337      10.64343644      -4.36448139
Br       5.85132939      11.86824451      -7.67744410
H        2.93976888       0.12793792      -2.55056075
H        4.38119594       1.53038099      -3.99413810
H        0.80741464       3.63413745      -1.19519575
H        4.85840212       4.36184571      -4.81418064
H        2.62222675       8.29660192      -2.73412734
H        5.68680800       8.92894172      -7.23364876
H        4.20228398      12.49764734      -5.30035851
H        3.07985976      11.12611954      -3.57188718
C       -1.79369259      -1.79369259      -1.79369259
C       -3.02462499      -1.30878723      -2.22979779
C       -3.84838834      -2.09854299      -3.04168752
C       -3.41887611      -3.38760323      -3.41284318
C       -2.18404129      -3.84341093      -2.95510822
C       -1.34390878      -3.07033503      -2.14371711
N       -2.01638581      -5.11608207      -3.45163443
H       -1.20370235      -5.69150780      -3.28652250
C       -3.09321580      -5.48680078      -4.22086958
C       -3.97914059      -4.42714436      -4.20723200
C       -3.17521250      -6.75600879      -4.87349414
C       -2.43095545      -7.90568991      -4.69425019
C       -2.90599713      -8.89091160      -5.60495698
C       -3.94339146      -8.30955695      -6.33141574
N       -4.08964725      -7.02330831      -5.86402844
H       -4.76603492      -6.36127733      -6.21464816
C       -4.64452922      -8.99423521      -7.33224281
C       -4.26532523     -10.31573894      -7.58624592
C       -3.23625408     -10.92898601      -6.87535096
C       -2.54748147     -10.22514381      -5.87948592
Br      -5.17490862     -11.29213432      -8.92997505
H       -3.35831897      -0.31389242      -1.94605616
H       -4.80721442      -1.71755977      -3.38094083
H       -0.38587797      -3.44782393      -1.80304595
H       -4.93772576      -4.39028711      -4.70641560
H       -1.62892661      -8.04217300      -3.98185640
H       -5.44655332      -8.51753342      -7.88531175
H       -2.95642345     -11.95804865      -7.08581773
H       -1.74493273     -10.70553526      -5.32739848
C       -1.79369259       1.79369259       1.79369259
C       -1.37326485       3.08469536       2.10524981
C       -2.16697542       3.91214319       2.90950023
C       -3.39461112       3.42540499       3.39930641
C       -3.78270943       2.12748894       3.07236207
C       -3.00551211       1.28351671       2.26893209
N       -4.99917201       1.90746694       3.67746336
H       -5.52558034       1.04911657       3.60703573
C       -5.40987722       3.02155021       4.36945873
C       -4.42449694       3.97667414       4.21234586
C       -6.64873823       3.07527423       5.08070297
C       -7.51176096       2.06395281       5.45518178
C       -8.61534586       2.64926718       6.13725267
C       -8.39765984       4.02547223       6.16123207
N       -7.19969582       4.25397811       5.52331008
H       -6.79096776       5.16635463       5.38463802
C       -9.29499374       4.92472994       6.75128356
C      -10.44591128       4.38659987       7.33479894
C      -10.69206676       3.01552902       7.33299526
C       -9.78172295       2.13436985       6.73601841
Br     -11.69798917       5.55302199       8.14600683
H       -0.42692007       3.46362081       1.72772667
H       -1.83707554       4.91856090       3.15007859
H       -3.33192290       0.27789915       2.02692579
H       -4.42623105       4.97121282       4.63698459
H       -7.37486027       1.00722684       5.27086889
H       -9.10327154       5.99225437       6.75387257
H      -11.59189300       2.61529571       7.79310113
H       -9.97666868       1.06588651       6.73531128
C        1.79369259      -1.79369259       1.79369259
C        1.46255183      -3.13593295       1.96472524
C        2.25833048      -3.96405617       2.76623219
C        3.39688871      -3.42559774       3.39683607
C        3.69654528      -2.07772740       3.20828776
C        2.91568000      -1.23195626       2.41032466
N        4.83782531      -1.81495981       3.93131720
H        5.29235125      -0.91475875       3.97462265
C        5.28677409      -2.94841940       4.56569267
C        4.40276586      -3.96149335       4.24925774
C        6.46544663      -2.96487879       5.37439001
C        7.20589149      -1.92438159       5.90062247
C        8.29826083      -2.47698588       6.62661899
C        8.19857078      -3.86305019       6.52274317
N        7.07899095      -4.12995511       5.76803794
H        6.76254190      -5.05650448       5.52291403
C        9.12039954      -4.73585774       7.11474996
C       10.17092482      -4.16049639       7.83588888
C       10.29757500      -2.77918487       7.96383117
C        9.36493099      -1.92478597       7.36239425
Br      11.45053959      -5.28957588       8.65690252
H        0.58518943      -3.55470691       1.47837121
H        1.99823227      -5.01038914       2.89709362
H        3.17249494      -0.18657134       2.27768156
H        4.45643184      -4.98560697       4.59238966
H        6.99360775      -0.86988553       5.78946272
H        9.02163157      -5.81146261       7.01630430
H       11.12036615      -2.35003732       8.52988636
H        9.46666888      -0.84813545       7.46306215
C       -0.00445707       0.01189536      -1.78238275
H       -0.66409135       0.67374010      -2.43557963
H        0.65740317      -0.63156657      -2.45157240
C       -0.90989263      -0.90692880      -0.91072765
C        0.90977584       0.90977584      -0.90977584
C       -0.00465871       1.77757030       0.00794375
H       -0.66225468       2.44313916      -0.64384735
H        0.64322798       2.43503045       0.67728295
C       -1.78241447       0.00034974      -0.00472694
H       -2.45427497      -0.65498947       0.64260836
H       -2.43311707       0.67328779      -0.65473579
C       -0.91132561       0.90220522       0.91563759
C       -0.01476271      -0.02253852       1.78660255
H       -0.67934791      -0.69751639       2.42135241
H        0.63392994       0.61504881       2.47327442
C        0.01484550      -1.77751727      -0.01636693
H        0.67870853      -2.42144646      -0.68295456
H       -0.62264859      -2.45592969       0.64226336
C        1.78714474       0.01002794       0.00389507
H        2.44202412       0.67113390       0.66197326
H        2.45385902      -0.65136977      -0.64189061
C        0.91606151      -0.90478549       0.90901405
