133
Properties=species:S:1:pos:R:3 pbc="F F F"
C        0.00000000       0.00000000       0.00000000
C        0.88375575       0.88375575      -0.88375575
C        1.97991913       0.32012661      -1.53286254
C        2.79775342       1.10695280      -2.35336201
C        2.49612780       2.47219726      -2.52190201
C        1.39140280       3.00548508      -1.85595329
C        0.56550358       2.23806006      -1.02459288
N        1.31868262       4.33749758      -2.19921455
H        0.60753855       4.97805835      -1.87576853
C        2.31117514       4.65306053      -3.08867928
C        3.07690944       3.52575067      -3.28171293
C        2.44781688       5.91957381      -3.71591319
C        2.50012238       6.96189906      -4.30756228
C        2.47634057       8.24791299      -5.13667381
C        2.36691138       9.21188190      -5.84159162
C        2.14949820      10.30875994      -6.71660399
C        1.46377278      11.47408431      -6.45946878
C        1.41340468      12.22262956      -7.66829921
C        2.10625153      11.49143105      -8.63453618
N        2.56399072      10.34602545      -8.02133622
H        3.09079778       9.61682202      -8.48114694
C        2.24171440      11.92532265      -9.95949194
C        1.63968018      13.14131642     -10.29718860
C        0.94226525      13.89647154      -9.35704211
C        0.82524372      13.44831680      -8.03549749
Br       1.77005974      13.76923094     -12.07892054
H        2.20942562      -0.73577995      -1.41422612
H        3.64786827       0.66358743      -2.86383926
H       -0.29028817       2.67492785      -0.52105520
H        3.93994562       3.45031779      -3.93028104
H        1.00930479      11.74568157      -5.51566543
H        2.78164392      11.33662868     -10.69344824
H        0.47751268      14.83778486      -9.63914163
H        0.27509937      14.03550399      -7.30592968
C       -0.88375575      -0.88375575      -0.88375575
C       -0.64280681      -0.93525755      -2.25484392
C       -1.43267108      -1.74325620      -3.08214095
C       -2.46810465      -2.50937743      -2.51274499
C       -2.68360167      -2.43348479      -1.13575470
C       -1.91056566      -1.62575091      -0.29183996
N       -3.73230844      -3.27795327      -0.84513305
H       -4.10367259      -3.43832024       0.08062740
C       -4.15795007      -3.91407135      -1.98089353
C       -3.41571688      -3.43313851      -3.03551764
C       -5.15424931      -4.92551802      -2.00353655
C       -5.93009344      -5.84054330      -1.99894698
C       -6.82573338      -7.08057844      -1.95461555
C       -7.43846673      -8.10825742      -1.87366075
C       -8.07941271      -9.36690227      -1.72854715
C       -8.90386837      -9.78472288      -0.70873463
C       -9.21373502     -11.15455555      -0.93604288
C       -8.58107890     -11.52837619      -2.12276368
N       -7.92081318     -10.41549844      -2.59504077
H       -7.36215470     -10.39017445      -3.43643760
C       -8.65592268     -12.82623903      -2.64436728
C       -9.39632200     -13.76391892      -1.91794429
C      -10.04115332     -13.42367196      -0.73095362
C       -9.96009306     -12.11819977      -0.23076519
Br      -9.51568020     -15.54072501      -2.56180601
H        0.16268058      -0.35404406      -2.69650831
H       -1.23839501      -1.78695648      -4.14994347
H       -2.09501940      -1.58713744       0.77646197
H       -3.51233550      -3.73916626      -4.06904269
H       -9.22020301      -9.18541975       0.13497098
H       -8.15147520     -13.09342459      -3.56682104
H      -10.60919577     -14.16736580      -0.17787760
H      -10.45801385     -11.85705106       0.69853188
C       -0.88375575       0.88375575       0.88375575
C       -2.21401150       1.09226286       0.52663391
C       -3.04401344       1.88986085       1.32419394
C       -2.52229777       2.47264588       2.49528340
C       -1.18484425       2.24472987       2.82326705
C       -0.33569168       1.45713603       2.03532882
N       -0.94062280       2.91078423       4.00398773
H       -0.05555120       2.91469795       4.49111629
C       -2.08469056       3.51495986       4.45326453
C       -3.07297118       3.28912538       3.52227648
C       -2.19375887       4.19409142       5.69545358
C       -2.29935558       4.68543785       6.78479030
C       -2.44465982       5.19630210       8.21996545
C       -2.55543381       5.48676195       9.37818915
C       -2.67508048       5.72737320      10.77240845
C       -1.67877841       6.05479344      11.66375402
C       -2.25435482       6.08549514      12.96448349
C       -3.61282414       5.79892304      12.82047158
N       -3.84448665       5.61123593      11.47562981
H       -4.74037998       5.37636664      11.07202012
C       -4.49087355       5.72621093      13.90944451
C       -3.95083478       5.94722213      15.18012829
C       -2.60002912       6.23686259      15.35888719
C       -1.74063207       6.31258868      14.25583726
Br      -5.08453534       5.84054180      16.69313408
H       -2.62344812       0.63496887      -0.37054520
H       -4.08275077       2.04532010       1.04722409
H        0.69952452       1.29130414       2.31391525
H       -4.09546551       3.63756746       3.58751147
H       -0.63735646       6.21573230      11.41756303
H       -5.54231752       5.49741436      13.77198896
H       -2.19741789       6.40200208      16.35501920
H       -0.68641730       6.53176285      14.39835288
C        0.88375575      -0.88375575       0.88375575
C        0.36563836      -2.07094537       1.39632455
C        1.15803629      -2.89992346       2.20010849
C        2.48666160      -2.52505734       2.47850812
C        2.97400029      -1.32843134       1.95040953
C        2.19588172      -0.48114437       1.15113043
N        4.28361899      -1.21092220       2.36085356
H        4.89723985      -0.44589670       2.11822888
C        4.65172825      -2.30851052       3.09267618
C        3.54940415      -3.12421784       3.21075104
C        5.96708722      -2.54284655       3.57337011
C        7.09912911      -2.77459070       3.89586391
C        8.56355474      -3.10764301       4.18972962
C        9.72318551      -3.38954930       4.30765009
C       11.10048739      -3.73300062       4.34137413
C       12.18506473      -2.88577629       4.32648486
C       13.35912856      -3.68647091       4.25873398
C       12.94852091      -5.02051869       4.26317917
N       11.57316274      -5.01833895       4.33985070
H       10.99466964      -5.84657569       4.34752142
C       13.84955267      -6.09028992       4.18668640
C       15.20857188      -5.77431518       4.09529814
C       15.65220046      -4.45382846       4.08974998
C       14.73513606      -3.39895947       4.17496249
Br      16.47311929      -7.17799873       3.96709319
H       -0.65584633      -2.36929767       1.17442045
H        0.75389024      -3.82847930       2.59292541
H        2.59905436       0.44203971       0.74868023
H        3.51611976      -4.07155350       3.73287119
H       12.14323247      -1.80443044       4.32298888
H       13.50523615      -7.11898900       4.18749569
H       16.71272798      -4.22751145       4.01419974
H       15.08296026      -2.37007479       4.16349798
