154
Properties=species:S:1:pos:R:3 pbc="F F F"
C        1.79365978       1.79365978      -1.79365978
C        2.88982315       1.23003063      -2.44276656
C        3.70765744       2.01685683      -3.26326604
C        3.40603182       3.38210128      -3.43180603
C        2.30130682       3.91538910      -2.76585731
C        1.47540761       3.14796409      -1.93449691
N        2.22858664       5.24740161      -3.10911858
H        1.51744258       5.88796237      -2.78567256
C        3.22107917       5.56296455      -3.99858331
C        3.98681347       4.43565469      -4.19161695
C        3.35772090       6.82947783      -4.62581722
C        3.41002640       7.87180309      -5.21746630
C        3.38624460       9.15781701      -6.04657783
C        3.27681540      10.12178592      -6.75149565
C        3.05940223      11.21866396      -7.62650802
C        2.37367681      12.38398833      -7.36937280
C        2.32330871      13.13253358      -8.57820324
C        3.01615555      12.40133507      -9.54444021
N        3.47389475      11.25592948      -8.93124024
H        4.00070180      10.52672605      -9.39105097
C        3.15161842      12.83522667     -10.86939597
C        2.54958421      14.05122044     -11.20709262
C        1.85216928      14.80637556     -10.26694613
C        1.73514774      14.35822082      -8.94540152
Br       2.67996376      14.67913496     -12.98882456
H        3.11932964       0.17412407      -2.32413015
H        4.55777229       1.57349146      -3.77374328
H        0.61961585       3.58483187      -1.43095922
H        4.84984964       4.36022181      -4.84018507
H        1.91920881      12.65558559      -6.42556945
H        3.69154794      12.24653270     -11.60335226
H        1.38741671      15.74768888     -10.54904565
H        1.18500339      14.94540801      -8.21583370
C       -1.79365978      -1.79365978      -1.79365978
C       -2.80059187      -1.20595212      -2.55607637
C       -3.61602137      -1.99311948      -3.37863946
C       -3.40258767      -3.38406742      -3.43328404
C       -2.38608473      -3.94094448      -2.65552403
C       -1.56474953      -3.17284485      -1.82027421
N       -2.38636416      -5.29603666      -2.90270600
H       -1.74630648      -5.95790262      -2.48686840
C       -3.33715421      -5.60747295      -3.83799986
C       -4.00532424      -4.44819056      -4.16057030
C       -3.52206483      -6.90375072      -4.38720040
C       -3.60933351      -7.98001637      -4.90994592
C       -3.62247677      -9.32093783      -5.64722485
C       -3.53558119     -10.33818886      -6.27632693
C       -3.33937529     -11.50715053      -7.05804839
C       -2.75784958     -12.69430354      -6.67488482
C       -2.68051778     -13.52939627      -7.82413148
C       -3.25281384     -12.82470654      -8.88441045
N       -3.66716793     -11.61015554      -8.38374100
H       -4.10828306     -10.88221016      -8.92798560
C       -3.33004739     -13.34255894     -10.18363474
C       -2.79561287     -14.61723952     -10.39504489
C       -2.21874363     -15.34794925      -9.35879809
C       -2.15860984     -14.81491259      -8.06524766
Br      -2.85112947     -15.36131324     -12.13548057
H       -2.96112271      -0.13126004      -2.52520112
H       -4.39601180      -1.53161823      -3.97737701
H       -0.77817840      -3.62875832      -1.22847024
H       -4.81534279      -4.36189348      -4.87302025
H       -2.38828016     -12.92725988      -5.68482382
H       -3.77595134     -12.77324838     -10.99223320
H       -1.80492926     -16.33609149      -9.54313049
H       -1.70213834     -15.38372278      -7.26038398
C       -1.79365978       1.79365978       1.79365978
C       -1.99947003       3.12481619       1.43833413
C       -2.81095319       3.95018091       2.22664620
C       -3.42326603       3.41860387       3.37806923
C       -3.19495792       2.08128129       3.70631403
C       -2.38062927       1.24105732       2.93618201
N       -3.91088543       1.82040375       4.85381764
H       -3.94687667       0.92461925       5.31958158
C       -4.61426789       2.93133950       5.23701963
C       -4.30589749       3.94718456       4.36100306
C       -5.53084569       2.96110810       6.32106216
C       -6.36872403       2.95097386       7.17959790
C       -7.51430446       2.88430252       8.19203247
C       -8.47087861       2.77261491       8.90660345
C       -9.64766755       2.57960717       9.67729948
C       -9.88957657       1.61186321      10.62559817
C      -11.24215797       1.74597265      11.04591491
C      -11.78425156       2.82769324      10.34998603
N      -10.78550695       3.33022389       9.54533362
H      -10.89177058       4.11218937       8.91451887
C      -13.11494796       3.23704758      10.50424552
C      -13.90818976       2.50590148      11.39380604
C      -13.39827283       1.42212327      12.10509487
C      -12.06266777       1.03406721      11.94203511
Br     -15.72161575       2.99834586      11.62796167
H       -1.53765444       3.53576288       0.54416655
H       -2.97538458       4.98592183       1.94370063
H       -2.22206215       0.20341492       3.20992988
H       -4.70126541       4.95400712       4.39498399
H       -9.18536419       0.85937503      10.95562464
H      -13.51426084       4.07872240       9.94844967
H      -14.03135380       0.86323404      12.78956340
H      -11.66925167       0.18443866      12.49255477
C        1.79365978      -1.79365978       1.79365978
C        1.72967127      -3.17828180       1.65466728
C        2.53492683      -4.00675595       2.44609752
C        3.41590403      -3.42554723       3.37848787
C        3.45411454      -2.03499815       3.49344055
C        2.65157660      -1.18882711       2.71746488
N        4.39432645      -1.73607886       4.45470152
H        4.64749117      -0.80127857       4.74230776
C        4.97912862      -2.88401187       4.91948653
C        4.36981404      -3.94880154       4.29546953
C        6.05929397      -2.91306893       5.84065305
C        7.02871413      -2.92328398       6.54729769
C        8.33330839      -2.91022919       7.34710186
C        9.40776235      -2.86458658       7.87774804
C       10.71861361      -2.77070704       8.41525356
C       11.26895152      -1.72993012       9.12815631
C       12.63888967      -2.03831217       9.35684369
C       12.87871020      -3.29175960       8.79146103
N       11.68825067      -3.72348771       8.24932609
H       11.56111365      -4.59788711       7.75947807
C       14.13839464      -3.90397929       8.81386713
C       15.17865705      -3.20048970       9.42875052
C       14.97317395      -1.94846736      10.00384966
C       13.70393518      -1.35740756       9.97742735
Br      16.90944346      -3.96759275       9.47088708
H        1.05911946      -3.63026600       0.92819840
H        2.48815999      -5.08583991       2.33100713
H        2.70269092      -0.11032745       2.82238859
H        4.60850637      -4.99319232       4.44855783
H       10.75656751      -0.82284447       9.42095188
H       14.30058238      -4.87741702       8.36343351
H       15.79513906      -1.41481123      10.47420095
H       13.54773878      -0.37808390      10.42042243
C       -0.00445707       0.01189536      -1.78238275
H       -0.66409135       0.67374010      -2.43557963
H        0.65740317      -0.63156657      -2.45157240
C       -0.90989263      -0.90692880      -0.91072765
C        0.90977584       0.90977584      -0.90977584
C       -0.00465871       1.77757030       0.00794375
H       -0.66225468       2.44313916      -0.64384735
H        0.64322798       2.43503045       0.67728295
C       -1.78241447       0.00034974      -0.00472694
H       -2.45427497      -0.65498947       0.64260836
H       -2.43311707       0.67328779      -0.65473579
C       -0.91132561       0.90220522       0.91563759
C       -0.01476271      -0.02253852       1.78660255
H       -0.67934791      -0.69751639       2.42135241
H        0.63392994       0.61504881       2.47327442
C        0.01484550      -1.77751727      -0.01636693
H        0.67870853      -2.42144646      -0.68295456
H       -0.62264859      -2.45592969       0.64226336
C        1.78714474       0.01002794       0.00389507
H        2.44202412       0.67113390       0.66197326
H        2.45385902      -0.65136977      -0.64189061
C        0.91606151      -0.90478549       0.90901405
