149
Properties=species:S:1:pos:R:3 pbc="F F F"
C        0.00000000       0.00000000       0.00000000
C        0.91488070       0.91488070      -0.91488070
C        1.82085559       0.04443719      -1.77161181
C        2.81993696       0.88276688      -2.59616433
H        3.32281172       1.56299558      -1.89701318
C        3.93395966      -0.02011587      -3.23190892
H        4.49457751      -0.48275758      -2.40805317
N        3.35212817      -1.11236794      -4.00434998
C        3.96058478      -2.32573502      -4.20729193
O        5.02923073      -2.64129127      -3.68915440
C        3.15782601      -3.25307605      -5.13079766
N        3.84165246      -4.54415343      -5.30496708
C        4.94098028       0.75423516      -4.10678435
C        5.67861071       1.84278014      -3.34751102
Br       6.95448031       2.72244994      -4.52977519
N        2.13453174       1.77579506      -3.53897297
C        1.47718363       1.40131414      -4.69206609
O        1.48554506       0.26243019      -5.15226162
C        0.77222474       2.55917337      -5.41214305
N        0.54469870       3.69994592      -4.49795887
H        1.48395808       1.55614878      -0.23597575
H        0.23620711       1.52702500      -1.51416972
H        1.20602723      -0.58106106      -2.43022759
H        2.38349630      -0.63948413      -1.12238554
H        2.55628876      -0.86975396      -4.59994869
H        3.03665045      -2.76940188      -6.10496055
H        2.16906349      -3.42125086      -4.69124351
H        4.78399053      -4.34589574      -5.64830668
H        4.00815505      -4.92811763      -4.37158841
H        4.43026559       1.18148949      -4.97923270
H        5.67303451       0.04618235      -4.51839640
H        6.25366486       1.44193713      -2.50872674
H        5.01504691       2.63541844      -2.99460210
H        1.81966497       2.68316553      -3.19979893
H       -0.18787244       2.19063259      -5.78287947
H        1.39121760       2.87657307      -6.25575376
H        1.34104981       4.33625184      -4.57935391
H       -0.24417999       4.23558963      -4.86824549
C       -0.91488070      -0.91488070      -0.91488070
C       -2.17173605      -0.15539226      -1.30977628
C       -3.15808588      -1.03858859      -2.10219371
H       -3.31024723      -1.95488754      -1.51768571
C       -4.56001779      -0.34817075      -2.23756418
H       -4.96805386      -0.22713452      -1.22468471
N       -4.43692330       0.99241470      -2.79960161
C       -5.31237354       2.01929421      -2.54906236
O       -6.24943337       1.93132200      -1.75898250
C       -4.98663944       3.29305135      -3.34195951
N       -5.94156703       4.36762330      -3.02852237
C       -5.58011930      -1.16279319      -3.05908730
C       -5.85436911      -2.53793572      -2.47659705
Br      -7.18688626      -3.45927090      -3.56054829
N       -2.57533004      -1.50857540      -3.36539433
C       -2.33358932      -0.74730493      -4.48966961
O       -2.69505391       0.41895726      -4.62414022
C       -1.61990354      -1.50757956      -5.61605806
N       -0.93258938      -2.71126352      -5.09875060
H       -1.14275898      -1.80760116      -0.32572247
H       -0.30614196      -1.19203705      -1.77922282
H       -1.89216873       0.73026560      -1.89329063
H       -2.67266723       0.20958864      -0.40331913
H       -3.79237600       1.09369510      -3.58780259
H       -5.02809935       3.06801714      -4.41212690
H       -3.97349207       3.62028443      -3.08584849
H       -6.87960053       4.00445607      -3.21125701
H       -5.93310987       4.49510534      -2.01362131
H       -5.23910869      -1.25355350      -4.09832559
H       -6.52325350      -0.60213228      -3.11222746
H       -6.25946247      -2.48202187      -1.46284438
H       -4.97386960      -3.18427234      -2.48692551
H       -2.00382583      -2.35152036      -3.34728324
H       -0.88675894      -0.83293089      -6.06594980
H       -2.35940418      -1.79610938      -6.36803087
H       -1.57471264      -3.50306023      -5.17888270
H       -0.17567172      -2.93433175      -5.74965165
C       -0.91488070       0.91488070       0.91488070
C       -0.11101235       2.10044897       1.42544327
C       -0.91664314       2.96220592       2.42001911
H       -1.31541949       2.28307498       3.18432601
C        0.00681953       3.98979983       3.16277241
H        0.73988114       3.41474459       3.74500963
N        0.76836999       4.79680446       2.21567575
C        1.99429208       5.35253424       2.48389953
O        2.61052638       5.15843299       3.52918726
C        2.52312903       6.22335930       1.33531734
N        3.84377012       6.78302805       1.66320818
C       -0.74763203       4.91324936       4.14111840
C       -1.47998466       4.15499105       5.23392616
Br      -2.35569082       5.41421469       6.43679994
N       -2.11127738       3.54344525       1.79457714
C       -2.13662478       4.56524232       0.86869675
O       -1.15085436       5.21662936       0.53275315
C       -3.53737610       4.88034896       0.32581610
N       -4.46188896       3.74460458       0.53610995
H       -1.26883771       0.27734771       1.72989718
H       -1.76147760       1.22082960       0.29509463
H        0.22407143       2.70526425       0.57400094
H        0.79425034       1.73352999       1.92711807
H        0.25441571       5.14050356       1.40039564
H        1.81654572       7.03832755       1.15042728
H        2.60218859       5.60885102       0.43239371
H        3.74931443       7.28943245       2.54628346
H        4.45405917       5.99904200       1.90664300
H       -1.44874264       5.55263939       3.58960576
H       -0.02967921       5.60372686       4.60420718
H       -0.79996180       3.55758327       5.84678366
H       -2.27958974       3.52068540       4.84479231
H       -2.95959300       2.98056790       1.76246853
H       -3.44594585       5.08402330      -0.74432953
H       -3.91912489       5.76958647       0.83483308
H       -4.94241655       3.88673882       1.42750019
H       -5.20346073       3.82055487      -0.16436048
C        0.91488070      -0.91488070       0.91488070
C        0.15358727      -2.16930297       1.31401435
C        0.95222328      -3.04166745       2.30497745
H        1.26976854      -2.38672268       3.12632926
C        0.05016000      -4.15830619       2.93728653
H       -0.74487193      -3.65781167       3.50693335
N       -0.61187747      -4.94987867       1.90610901
C       -1.81677961      -5.58535853       2.07356276
O       -2.49859904      -5.48475705       3.09093586
C       -2.23230685      -6.41649846       0.85135600
N       -3.53463085      -7.06442156       1.07267540
C        0.80217086      -5.09400874       3.90582020
C        1.43001813      -4.36092183       5.07796192
Br       2.30995012      -5.63762845       6.25912689
N        2.21008665      -3.52095096       1.71826215
C        2.34362703      -4.48539456       0.74154226
O        1.41619935      -5.16880256       0.31523496
C        3.78732992      -4.69295425       0.26325699
N        4.63283387      -3.52282174       0.58694789
H        1.18738182      -0.30671767       1.78198312
H        1.80976893      -1.13883023       0.32880267
H       -0.09999984      -2.74175239       0.41344122
H       -0.79688999      -1.88099861       1.78228910
H       -0.03589967      -5.21825975       1.10412342
H       -1.47142699      -7.18026592       0.66337019
H       -2.29745478      -5.75663583      -0.02012491
H       -3.45923138      -7.61455080       1.93108205
H       -4.20090574      -6.32968413       1.32284744
H        1.56736312      -5.66211680       3.36150786
H        0.10084063      -5.84752396       4.28924865
H        0.68493316      -3.83702848       5.68236709
H        2.21196215      -3.66321796       4.76988734
H        3.02539789      -2.91219715       1.76503438
H        3.76555854      -4.83987314      -0.81979206
H        4.19116659      -5.58788587       0.74449198
H        5.07187927      -3.68944441       1.49533188
H        5.41425253      -3.51854754      -0.07314495
