170
Properties=species:S:1:pos:R:3 pbc="F F F"
C        1.82478473       1.82478473      -1.82478473
C        2.73075962       0.95434122      -2.68151583
C        3.72984099       1.79267091      -3.50606835
H        4.23271575       2.47289960      -2.80691720
C        4.84386369       0.88978816      -4.14181294
H        5.40448153       0.42714644      -3.31795719
N        4.26203219      -0.20246391      -4.91425401
C        4.87048880      -1.41583100      -5.11719596
O        5.93913476      -1.73138725      -4.59905843
C        4.06773003      -2.34317203      -6.04070168
N        4.75155648      -3.63424941      -6.21487110
C        5.85088431       1.66413919      -5.01668837
C        6.58851474       2.75268417      -4.25741504
Br       7.86438434       3.63235397      -5.43967922
N        3.04443576       2.68569909      -4.44887700
C        2.38708765       2.31121816      -5.60197011
O        2.39544908       1.17233421      -6.06216565
C        1.68212877       3.46907739      -6.32204707
N        1.45460273       4.60984994      -5.40786289
H        2.39386210       2.46605281      -1.14587977
H        1.14611114       2.43692902      -2.42407374
H        2.11593126       0.32884297      -3.34013161
H        3.29340032       0.27041990      -2.03228957
H        3.46619279       0.04015007      -5.50985272
H        3.94655447      -1.85949786      -7.01486457
H        3.07896751      -2.51134683      -5.60114753
H        5.69389456      -3.43599171      -6.55821070
H        4.91805908      -4.01821361      -5.28149243
H        5.34016961       2.09139351      -5.88913673
H        6.58293853       0.95608637      -5.42830042
H        7.16356888       2.35184115      -3.41863077
H        5.92495094       3.54532246      -3.90450612
H        2.72956900       3.59306955      -4.10970295
H        0.72203158       3.10053662      -6.69278350
H        2.30112163       3.78647709      -7.16565778
H        2.25095384       5.24615586      -5.48925793
H        0.66572404       5.14549365      -5.77814951
C       -1.82478473      -1.82478473      -1.82478473
C       -2.49176434      -0.97768333      -2.89716899
C       -3.48978502      -1.79467399      -3.74412125
H       -4.16247311      -2.30614707      -3.04391238
C       -4.38353375      -0.86005308      -4.63187795
H       -4.97047537      -0.22386335      -3.95524645
N       -3.56755158       0.03680048      -5.44307118
C       -3.97383494       1.27518143      -5.87320026
O       -5.04349914       1.78605974      -5.54936653
C       -2.94514465       1.96237476      -6.78248980
N       -3.41828332       3.29022959      -7.20412445
C       -5.37445157      -1.62012926      -5.53713104
C       -6.34148644      -2.49631393      -4.76081358
Br      -7.57404355      -3.36979699      -5.99257698
N       -2.82513399      -2.88544242      -4.46843542
C       -1.98785826      -2.75580500      -5.55661266
O       -1.78338693      -1.69868447      -6.14787754
C       -1.36743718      -4.07856443      -6.02725161
N       -1.41162160      -5.10144410      -4.95924986
H       -2.55473188      -2.29274409      -1.15831872
H       -1.16956108      -2.59125181      -2.24630102
H       -1.72147028      -0.52796119      -3.53547437
H       -3.02906477      -0.14780246      -2.41924256
H       -2.74664128      -0.38006412      -5.88949016
H       -2.77491522       1.33792416      -7.66493013
H       -2.00311851       2.06873841      -6.23438812
H       -4.33045560       3.16194635      -7.64760430
H       -3.64188800       3.81651909      -6.35596899
H       -4.82581089      -2.22219762      -6.27269135
H       -5.94667982      -0.89231838      -6.12832713
H       -6.95294617      -1.91707040      -4.06402423
H       -5.84115151      -3.30708771      -4.22654030
H       -2.68174085      -3.76872907      -3.98187158
H       -0.32797526      -3.88349798      -6.30387845
H       -1.91768090      -4.43205242      -6.90352318
H       -2.27236195      -5.64187953      -5.07212615
H       -0.66520622      -5.77445794      -5.14970304
C       -1.82478473       1.82478473       1.82478473
C       -1.57160246       3.28978718       1.50522702
C       -2.34689161       4.23177538       2.44991326
H       -2.12172119       3.91466822       3.47614314
C       -1.84955615       5.71308522       2.31282342
H       -0.79441698       5.73710302       2.61806515
N       -1.89132586       6.15828959       0.92420683
C       -1.06280830       7.11528825       0.39375721
O       -0.14573335       7.63916399       1.02190860
C       -1.38800188       7.44689743      -1.06963963
N       -0.46512631       8.46418879      -1.59713692
C       -2.61688046       6.71374204       3.20108937
C       -2.53020577       6.38702540       4.68138277
Br      -3.48978383       7.73526456       5.71136913
N       -3.79914781       4.05283948       2.32702455
C       -4.58657466       4.44778240       1.26591886
O       -4.18444024       5.12338692       0.32212178
C       -6.05729233       4.02616626       1.38979464
N       -6.21605551       2.90927561       2.34698445
H       -1.56710521       1.57972304       2.85896642
H       -2.85680962       1.52637935       1.62392494
H       -1.84028295       3.48477893       0.45984396
H       -0.49777251       3.49930403       1.59903324
H       -2.72573225       5.89841170       0.39205161
H       -2.41553484       7.81827193      -1.13188558
H       -1.30274198       6.53322745      -1.66720122
H       -0.51759377       9.27449078      -0.97597101
H        0.48582320       8.11719661      -1.45003550
H       -3.66700527       6.76713496       2.88655962
H       -2.21311674       7.72137811       3.03283046
H       -1.49896124       6.39115140       5.04392816
H       -3.00580812       5.43633547       4.93263593
H       -4.24114151       3.31650054       2.87469946
H       -6.40212166       3.71213841       0.40109162
H       -6.64236320       4.88757765       1.72331566
H       -6.41124919       3.30612990       3.26898855
H       -7.07616400       2.41425103       2.09895217
C        1.82478473      -1.82478473       1.82478473
C        1.65126413      -3.28352572       1.43182682
C        2.42675738      -4.23276821       2.36905466
H        2.14392439      -3.97178826       3.39681990
C        2.00247228      -5.72639179       2.14660071
H        0.93736726      -5.80916441       2.40305349
N        2.12349133      -6.10686922       0.74346174
C        1.36205000      -7.07377185       0.13603191
O        0.44327503      -7.66397341       0.69955750
C        1.76407079      -7.32539963      -1.32421074
N        0.91102172      -8.35664930      -1.93549284
C        2.77505351      -6.73200870       3.02464966
C        2.61059006      -6.47581245       4.51221145
Br       3.58453239      -7.82645454       5.52543060
N        3.87348811      -3.98653350       2.31899023
C        4.72247224      -4.29957966       1.27822402
O        4.39170401      -4.94890004       0.28934490
C        6.16621868      -3.82137292       1.48566163
N        6.23377889      -2.74262591       2.49591077
H        1.51238587      -1.63745886       2.85594995
H        2.85008484      -1.47380667       1.68322239
H        1.97288356      -3.41990603       0.39211625
H        0.58484606      -3.54278819       1.46847554
H        2.96745171      -5.78798918       0.26075468
H        2.80890210      -7.64930722      -1.35628814
H        1.66369538      -6.39041236      -1.88533952
H        0.97303580      -9.19092541      -1.34784766
H       -0.05991407      -8.05759394      -1.81634196
H        3.83901234      -6.72629772       2.75538979
H        2.42431634      -7.74746869       2.79554030
H        1.56599226      -6.54027093       4.82777761
H        3.03202262      -5.51782592       4.82493097
H        4.25827526      -3.25717852       2.91688773
H        6.53865681      -3.44898495       0.52770993
H        6.77440967      -4.67100759       1.80783925
H        6.40688606      -3.17158981       3.40789177
H        7.08071986      -2.20065340       2.30799394
C       -0.00445707       0.01189536      -1.78238275
H       -0.66409135       0.67374010      -2.43557963
H        0.65740317      -0.63156657      -2.45157240
C       -0.90989263      -0.90692880      -0.91072765
C        0.90977584       0.90977584      -0.90977584
C       -0.00465871       1.77757030       0.00794375
H       -0.66225468       2.44313916      -0.64384735
H        0.64322798       2.43503045       0.67728295
C       -1.78241447       0.00034974      -0.00472694
H       -2.45427497      -0.65498947       0.64260836
H       -2.43311707       0.67328779      -0.65473579
C       -0.91132561       0.90220522       0.91563759
C       -0.01476271      -0.02253852       1.78660255
H       -0.67934791      -0.69751639       2.42135241
H        0.63392994       0.61504881       2.47327442
C        0.01484550      -1.77751727      -0.01636693
H        0.67870853      -2.42144646      -0.68295456
H       -0.62264859      -2.45592969       0.64226336
C        1.78714474       0.01002794       0.00389507
H        2.44202412       0.67113390       0.66197326
H        2.45385902      -0.65136977      -0.64189061
C        0.91606151      -0.90478549       0.90901405
