178
Properties=species:S:1:pos:R:3 pbc="F F F"
C        1.82478473       1.82478473      -1.82478473
C        2.73075962       0.95434122      -2.68151583
C        3.72984099       1.79267091      -3.50606835
H        4.23271575       2.47289960      -2.80691720
C        4.84386369       0.88978816      -4.14181294
H        5.40448153       0.42714644      -3.31795719
N        4.26203219      -0.20246391      -4.91425401
C        4.87048880      -1.41583100      -5.11719596
O        5.93913476      -1.73138725      -4.59905843
C        4.06773003      -2.34317203      -6.04070168
N        4.75155648      -3.63424941      -6.21487110
C        5.85088431       1.66413919      -5.01668837
C        6.58851474       2.75268417      -4.25741504
N        3.04443576       2.68569909      -4.44887700
C        2.38708765       2.31121816      -5.60197011
O        2.39544908       1.17233421      -6.06216565
C        1.68212877       3.46907739      -6.32204707
N        1.45460273       4.60984994      -5.40786289
H        2.39386210       2.46605281      -1.14587977
H        1.14611114       2.43692902      -2.42407374
H        2.11593126       0.32884297      -3.34013161
H        3.29340032       0.27041990      -2.03228957
H        3.46619279       0.04015007      -5.50985272
H        3.94655447      -1.85949786      -7.01486457
H        3.07896751      -2.51134683      -5.60114753
H        5.69389456      -3.43599171      -6.55821070
H        4.91805908      -4.01821361      -5.28149243
H        5.34016961       2.09139351      -5.88913673
H        6.58293853       0.95608637      -5.42830042
H        7.16356888       2.35184115      -3.41863077
H        5.92495094       3.54532246      -3.90450612
H        2.72956900       3.59306955      -4.10970295
H        0.72203158       3.10053662      -6.69278350
H        2.30112163       3.78647709      -7.16565778
H        2.25095384       5.24615586      -5.48925793
H        0.66572404       5.14549365      -5.77814951
C        7.53107832       3.40255052      -5.13082652
C        8.32047532       3.94681359      -5.86230864
Br       9.59686351       4.82684093      -7.04505336
C       -1.82478473      -1.82478473      -1.82478473
C       -2.57722191      -0.96289447      -2.82650029
C       -3.57625573      -1.78691477      -3.66540975
H       -4.19272203      -2.35924831      -2.96056221
C       -4.55034206      -0.85628426      -4.46883847
H       -5.13292541      -0.27829901      -3.73836074
N       -3.81298494       0.11214769      -5.27298504
C       -4.29288257       1.34822820      -5.62719940
O       -5.36795375       1.79444515      -5.23329734
C       -3.33853182       2.12156427      -6.54829213
N       -3.88870164       3.44347784      -6.88695438
C       -5.54748623      -1.62060790      -5.36361773
C       -6.43810828      -2.57384325      -4.58666242
N       -2.89827821      -2.81286530      -4.46786833
C       -2.11862077      -2.59689126      -5.58476390
O       -1.98844951      -1.50642390      -6.13507552
C       -1.46285273      -3.86758497      -6.14281554
N       -1.41258221      -4.93750706      -5.12222629
H       -2.50186845      -2.35484677      -1.14907946
H       -1.15654637      -2.54088026      -2.30968728
H       -1.85777039      -0.45041295      -3.47672250
H       -3.12797120      -0.18056191      -2.28757668
H       -2.99596052      -0.24631697      -5.77391807
H       -3.18182266       1.54514611      -7.46524464
H       -2.37783198       2.24699938      -6.03793561
H       -4.81381595       3.29293209      -7.29522969
H       -4.09593080       3.92098447      -6.00639157
H       -5.00734849      -2.16370988      -6.14964149
H       -6.17790900      -0.89461019      -5.89480613
H       -7.04171913      -2.05470791      -3.83761376
H       -5.87840020      -3.38344136      -4.11293796
H       -2.69378810      -3.70919020      -4.02936320
H       -0.44687025      -3.61277045      -6.45571100
H       -2.03681075      -4.20709916      -7.00934659
H       -2.25294706      -5.51156908      -5.22185149
H       -0.64679976      -5.56632097      -5.37624647
C       -7.36034314      -3.21970555      -5.48440668
C       -8.13271483      -3.76061522      -6.23626750
Br      -9.38157454      -4.63522041      -7.45196286
C       -1.82478473       1.82478473       1.82478473
C       -1.56256959       3.29007886       1.51396821
C       -2.33787675       4.23120550       2.45949801
H       -2.11953680       3.90776771       3.48522804
C       -1.83236029       5.71064130       2.33246320
H       -0.77867934       5.72774681       2.64315900
N       -1.86481273       6.16307407       0.94593549
C       -1.02877528       7.11851833       0.42456016
O       -0.11226781       7.63453702       1.06000111
C       -1.34483879       7.45917891      -1.03875801
N       -0.41415565       8.47441942      -1.55639688
C       -2.59911894       6.71068006       3.22191287
C       -2.52162936       6.37603961       4.70094497
N       -3.79037605       4.06028295       2.32835284
C       -4.57038665       4.46459089       1.26529838
O       -4.16004295       5.14290887       0.32699712
C       -6.04383024       4.04983946       1.37958354
N       -6.21311031       2.92894102       2.33026423
H       -1.57361236       1.57318497       2.85899735
H       -2.85727153       1.53265288       1.61718949
H       -1.82493906       3.49172261       0.46824417
H       -0.48818412       3.49365359       1.61427208
H       -2.69780602       5.91014014       0.40824941
H       -2.37014926       7.83608536      -1.10431344
H       -1.26116543       6.54812287      -1.64052009
H       -0.46568059       9.28182388      -0.93139092
H        0.53426513       8.12185476      -1.40625173
H       -3.64734667       6.77100478       2.90234841
H       -2.18941041       7.71708798       3.06082694
H       -1.49223458       6.37308537       5.06872086
H       -3.00330864       5.42652176       4.94494912
H       -4.23887050       3.32343952       2.87003148
H       -6.38521090       3.74257720       0.38756360
H       -6.62622312       4.91251675       1.71451663
H       -6.41098034       3.32211194       3.25327536
H       -7.07444023       2.43955932       2.07536764
C       -3.22934037       7.37179643       5.46331857
C       -3.82204834       8.20574276       6.10180645
Br      -4.78040700       9.55416344       7.13418736
C        1.82478473      -1.82478473       1.82478473
C        1.60766688      -3.28775571       1.47119408
C        2.38296940      -4.23310294       2.41250791
H        2.13113315      -3.94134104       3.44005836
C        1.91850902      -5.72090484       2.23605093
H        0.85822796      -5.77200226       2.51935494
N        1.99679235      -6.13701921       0.84001073
C        1.19847656      -7.09932990       0.27404729
O        0.27991247      -7.65387848       0.87301500
C        1.55925510      -7.39476397      -1.18875939
N        0.66777998      -8.41927335      -1.75487515
C        2.68815483      -6.72391401       3.11964302
C        2.56556353      -6.42898409       4.60406632
N        3.83346037      -4.02296543       2.32258604
C        4.64959304      -4.38068095       1.27000193
O        4.27999225      -5.04489862       0.30505808
C        6.10873849      -3.93258516       1.43192958
N        6.22587558      -2.83235354       2.41408645
H        1.54175184      -1.60584465       2.85819818
H        2.85434239      -1.50197901       1.65079250
H        1.90090575      -3.45620131       0.42779878
H        0.53664536      -3.52037219       1.53909224
H        2.83615721      -5.84994279       0.33009557
H        2.59512056      -7.74436188      -1.23756125
H        1.46739674      -6.47106542      -1.76969395
H        0.72430063      -9.24077279      -1.14895987
H       -0.29272171      -8.09424599      -1.62018637
H        3.74517322      -6.75010785       2.82541879
H        2.30826693      -7.73574689       2.92331150
H        1.52762931      -6.46088292       4.94552857
H        3.01676775      -5.47432894       4.88368283
H        4.24952849      -3.28923638       2.89357663
H        6.46667766      -3.59185211       0.45682192
H        6.70438456      -4.78879835       1.76007360
H        6.41074009      -3.24382600       3.33180154
H        7.08054445      -2.31546135       2.19336139
C        3.27923884      -7.42594833       5.35926819
C        3.87694191      -8.26090588       5.99174976
Br       4.84337723      -9.61096161       7.01441896
C       -0.00445707       0.01189536      -1.78238275
H       -0.66409135       0.67374010      -2.43557963
H        0.65740317      -0.63156657      -2.45157240
C       -0.90989263      -0.90692880      -0.91072765
C        0.90977584       0.90977584      -0.90977584
C       -0.00465871       1.77757030       0.00794375
H       -0.66225468       2.44313916      -0.64384735
H        0.64322798       2.43503045       0.67728295
C       -1.78241447       0.00034974      -0.00472694
H       -2.45427497      -0.65498947       0.64260836
H       -2.43311707       0.67328779      -0.65473579
C       -0.91132561       0.90220522       0.91563759
C       -0.01476271      -0.02253852       1.78660255
H       -0.67934791      -0.69751639       2.42135241
H        0.63392994       0.61504881       2.47327442
C        0.01484550      -1.77751727      -0.01636693
H        0.67870853      -2.42144646      -0.68295456
H       -0.62264859      -2.45592969       0.64226336
C        1.78714474       0.01002794       0.00389507
H        2.44202412       0.67113390       0.66197326
H        2.45385902      -0.65136977      -0.64189061
C        0.91606151      -0.90478549       0.90901405
