122
Properties=species:S:1:pos:R:3 pbc="F F F"
C        1.81835727       1.81835727      -1.81835727
H        2.67920369       1.25427403      -2.19043601
C        2.16890768       3.21127975      -1.26921722
C        0.93083879       3.69636437      -2.04661299
H        0.02123481       3.71721126      -1.43157268
N        1.03646047       2.47952629      -2.88049043
C        1.09164087       4.88083715      -2.85093578
C        1.19409448       5.88783641      -3.49513247
C        1.28790449       7.19523048      -4.29047201
C        1.33028681       8.23454717      -4.88851604
C        1.34692344       9.50143407      -5.58935126
H        0.51352578      10.14886015      -5.29375523
C        1.56198082       9.44687929      -7.11316074
C        3.05573726       9.63719226      -6.79462344
H        3.60737326       8.69088867      -6.73402814
N        2.66215697      10.16387238      -5.47268702
H        3.13157446       3.59311503      -1.63253842
H        2.13162191       3.34008041      -0.18359065
H        0.14308602       2.02791112      -3.06429154
H        1.08437469      10.27695794      -7.64865380
H        1.29949893       8.51185161      -7.61739502
H        3.24391829       9.83925712      -4.70376045
C        3.75775933      10.61854903      -7.58056484
C        4.34570282      11.44043533      -8.23879077
Br       5.29635771      12.76935596      -9.30308642
C       -1.81835727      -1.81835727      -1.81835727
H       -2.74071746      -1.29485831      -2.08833796
C       -2.03165261      -3.26751079      -1.35024125
C       -0.82371860      -3.60617362      -2.24392394
H        0.12785722      -3.60220039      -1.69567559
N       -1.07315662      -2.34623204      -2.97708853
C       -0.96178472      -4.74150873      -3.12012036
C       -1.04217491      -5.70692621      -3.82796224
C       -1.10452699      -6.96026108      -4.70881891
C       -1.11955340      -7.95657914      -5.37721748
C       -1.10095459      -9.17040643      -6.16634775
H       -0.20582148      -9.77361553      -5.97670415
C       -1.43047367      -9.02777049      -7.66377668
C       -2.88032099      -9.34850514      -7.25872683
H       -3.48940048      -8.45159131      -7.09129828
N       -2.35572725      -9.93399077      -6.00899835
H       -2.99003332      -3.69323282      -1.67396177
H       -1.90608911      -3.46711789      -0.28208597
H       -0.22863565      -1.81877620      -3.18787682
H       -0.93784179      -9.78202301      -8.29012162
H       -1.27021526      -8.04373524      -8.11479505
H       -2.90031662      -9.70624976      -5.18036947
C       -3.56941135     -10.32271897      -8.06474288
C       -4.14652454     -11.13862305      -8.73978133
Br      -5.07966775     -12.45787094      -9.83126140
C       -1.81835727       1.81835727       1.81835727
H       -1.42462802       2.83858947       1.86069624
C       -2.22094337       1.24233394       3.18612734
C       -3.48084745       0.72919789       2.46377081
H       -3.37352283      -0.30032530       2.09682123
N       -3.23593804       1.74417078       1.41636838
C       -4.74427379       0.96387012       3.11526989
C       -5.80252205       1.11427307       3.66026824
C       -7.16125287       1.25611452       4.35623958
C       -8.22853581       1.32466249       4.90015172
C       -9.52178171       1.36596100       5.54996606
H      -10.01273388       0.38616397       5.55724331
C      -10.46433173       2.51392477       5.14376434
C       -9.87041600       3.27394492       6.34319203
H       -9.03542383       3.92972559       6.06714065
N       -9.43046168       1.97596680       6.89228789
H       -2.39670509       2.01219517       3.94832764
H       -1.56878427       0.47437037       3.61213833
H       -3.36889895       1.39773458       0.46865514
H      -11.52681434       2.25375929       5.22941279
H      -10.29651153       2.96925383       4.16298019
H       -8.49821892       1.98922261       7.29949433
C      -10.81018631       3.93705807       7.20962882
C      -11.59724394       4.49241533       7.93526964
Br     -12.86984957       5.39038106       9.10856946
C        1.81835727      -1.81835727       1.81835727
H        1.43062525      -2.84120399       1.85208449
C        2.20909059      -1.24827361       3.19204046
C        3.47020060      -0.72307954       2.48053602
H        3.35881387       0.30799729       2.11920218
N        3.23787529      -1.73309735       1.42550455
C        4.73105478      -0.95404733       3.13831169
C        5.78687053      -1.10134489       3.68884795
C        7.14218752      -1.23917800       4.39224146
C        8.20654357      -1.30456205       4.94224441
C        9.49604372      -1.34197174       5.59969332
H        9.98094073      -0.35927113       5.61592930
C       10.44804922      -2.48167860       5.19229302
C        9.85151265      -3.25261690       6.38342340
H        9.02224056      -3.91176075       6.09828877
N        9.40029799      -1.96071993       6.93769845
H        2.38492097      -2.02169954       3.95060740
H        1.54966895      -0.48690867       3.61871534
H        3.37447357      -1.38006933       0.48074577
H       11.50838042      -2.21558777       5.28601823
H       10.28898238      -2.93201222       4.20775095
H        8.46569554      -1.98213296       7.33910736
C       10.79003666      -3.91529182       7.25154473
C       11.57605052      -4.47028205       7.97859635
Br      12.84696845      -5.36765433       9.15417731
C       -0.00445707       0.01189536      -1.78238275
H       -0.66409135       0.67374010      -2.43557963
H        0.65740317      -0.63156657      -2.45157240
C       -0.90989263      -0.90692880      -0.91072765
C        0.90977584       0.90977584      -0.90977584
C       -0.00465871       1.77757030       0.00794375
H       -0.66225468       2.44313916      -0.64384735
H        0.64322798       2.43503045       0.67728295
C       -1.78241447       0.00034974      -0.00472694
H       -2.45427497      -0.65498947       0.64260836
H       -2.43311707       0.67328779      -0.65473579
C       -0.91132561       0.90220522       0.91563759
C       -0.01476271      -0.02253852       1.78660255
H       -0.67934791      -0.69751639       2.42135241
H        0.63392994       0.61504881       2.47327442
C        0.01484550      -1.77751727      -0.01636693
H        0.67870853      -2.42144646      -0.68295456
H       -0.62264859      -2.45592969       0.64226336
C        1.78714474       0.01002794       0.00389507
H        2.44202412       0.67113390       0.66197326
H        2.45385902      -0.65136977      -0.64189061
C        0.91606151      -0.90478549       0.90901405
