146
Properties=species:S:1:pos:R:3 pbc="F F F"
C        1.79153429       1.79153429      -1.79153429
C        2.29412976       1.28975126      -2.98891559
C        3.09855862       2.09907967      -3.79722839
C        3.41737850       3.40838359      -3.40901368
C        2.88884744       3.90084043      -2.20729882
C        2.08221911       3.09504498      -1.39746805
C        4.22908818       4.30524666      -4.24676020
C        5.22496947       3.89895253      -5.04989425
C        5.98973425       4.81248728      -5.87139845
C        6.95414201       4.39768040      -6.70819705
C        7.74779461       5.28532704      -7.57186888
C        7.21485734       6.44556763      -8.15120472
C        7.99241174       7.24288910      -8.99705355
C        9.30574554       6.87595494      -9.27858391
C        9.84690547       5.71802902      -8.72636760
C        9.06698719       4.92372310      -7.88025369
H        2.06279897       0.27698028      -3.30761169
H        3.46022020       1.69471318      -4.73951090
H        3.10506723       4.91746785      -1.88545865
H        1.68720214       3.49489717      -0.46731958
H        3.97995463       5.36207426      -4.17755736
H        5.49395117       2.84670153      -5.10614380
H        5.75266586       5.87019546      -5.78304093
H        7.20132741       3.34014555      -6.77454892
H        6.18439012       6.73763144      -7.96381384
H        7.56068800       8.13970183      -9.43333858
H       10.86903464       5.42244484      -8.94724721
H        9.50394535       4.02105957      -7.45812285
C       10.10614537       7.69462501     -10.15193346
C       10.77648022       8.38026119     -10.88336372
Br      11.86035499       9.48887690     -12.06602457
C       -1.79153429      -1.79153429      -1.79153429
C       -2.44686999      -2.88797788      -1.23794874
C       -3.25674871      -3.69268917      -2.04542881
C       -3.40632188      -3.41632040      -3.41213349
C       -2.75071045      -2.29858603      -3.94769019
C       -1.94171853      -1.49031724      -3.14269637
C       -4.27743119      -4.21481293      -4.28885091
C       -4.49621179      -5.53149055      -4.14611391
C       -5.37433556      -6.27808196      -5.02120246
C       -5.62716052      -7.58512692      -4.84773202
C       -6.52153909      -8.38223444      -5.70121700
C       -7.67611044      -7.84638765      -6.28913161
C       -8.52047510      -8.64808521      -7.06379408
C       -8.22048330      -9.99577468      -7.24402642
C       -7.08764740     -10.54981114      -6.65384355
C       -6.24505801      -9.74511315      -5.88079282
H       -2.34243391      -3.12281618      -0.18214086
H       -3.77810042      -4.52944117      -1.58690271
H       -2.85851951      -2.04838862      -5.00108560
H       -1.43836412      -0.63176309      -3.57929168
H       -4.75242405      -3.66707435      -5.10008786
H       -4.00645297      -6.08915044      -3.35119310
H       -5.82991310      -5.73199244      -5.84399672
H       -5.14999298      -8.13016424      -4.03586466
H       -7.94184467      -6.80240774      -6.14158298
H       -9.40881406      -8.21201262      -7.51290174
H       -6.85130687     -11.60234490      -6.78507492
H       -5.36470520     -10.19352146      -5.42490111
C       -9.09100421     -10.82278503      -8.03891461
C       -9.82006547     -11.51540619      -8.70463346
Br     -10.99889587     -12.63531603      -9.78104455
C       -1.79153429       1.79153429       1.79153429
C       -2.36820845       2.94265531       1.26193284
C       -3.17820931       3.74748855       2.06916883
C       -3.40614205       3.41603056       3.41260316
C       -2.82930281       2.24448294       3.92320094
C       -2.02047057       1.43602846       3.11823311
C       -4.28086541       4.21442662       4.28580300
C       -4.43164795       5.54530354       4.19686476
C       -5.31568109       6.29232766       5.06561123
C       -5.49939222       7.61665163       4.94397562
C       -6.39627538       8.41585857       5.79285658
C       -7.60132368       7.90986623       6.30043978
C       -8.44428838       8.71486798       7.07319803
C       -8.09161532      10.03677763       7.33189145
C       -6.90730710      10.56207269       6.82192231
C       -6.06632965       9.75408868       6.05054564
H       -2.20223081       3.22054002       0.22462011
H       -3.63774270       4.62865258       1.62804901
H       -2.99923662       1.95154719       4.95720992
H       -1.57883962       0.53498924       3.53559003
H       -4.81917571       3.65348495       5.04692559
H       -3.87893533       6.11468049       3.45318069
H       -5.83510125       5.73156211       5.83923889
H       -4.95900600       8.17482212       4.18219376
H       -7.90740998       6.88783137       6.09059405
H       -9.37240360       8.30196786       7.45935696
H       -6.62936760      11.59481241       7.01454669
H       -5.14528739      10.17999487       5.65784551
C       -8.96048884      10.86736709       8.12484791
C       -9.68817041      11.56298576       8.78894896
Br     -10.86476997      12.68774232       9.86274417
C        1.79153429      -1.79153429       1.79153429
C        1.78583776      -1.61456927       3.17238958
C        2.59096075      -2.42475890       3.97914703
C        3.41640720      -3.40638742       3.41198115
C        3.39645049      -3.57978233       2.02075386
C        2.59088836      -2.77283439       1.21100939
C        4.25035957      -4.30427486       4.22646060
C        4.82205281      -3.96046726       5.39129618
C        5.62291554      -4.87957498       6.17112945
C        6.15486625      -4.54707374       7.35807947
C        6.96293766      -5.44973189       8.19232098
C        6.72631968      -6.83027119       8.25503883
C        7.49375631      -7.64876311       9.08983497
C        8.49535851      -7.08741734       9.87750855
C        8.73357375      -5.71608344       9.84164491
C        7.96506693      -4.90082444       9.00507261
H        1.15671647      -0.85769875       3.63297573
H        2.55250425      -2.28518134       5.05675870
H        4.01390127      -4.34281135       1.55128111
H        2.59452111      -2.92057575       0.13432204
H        4.39620669      -5.30304130       3.82033826
H        4.69897056      -2.95663391       5.79119204
H        5.78473061      -5.86973926       5.75143238
H        6.00770987      -3.54718381       7.76112820
H        5.93361774      -7.28576245       7.66645522
H        7.29569694      -8.71684197       9.12118950
H        9.50929013      -5.27069933      10.45873724
H        8.16244356      -3.83090059       8.98978362
C        9.28399447      -7.92895916      10.73975021
C        9.94447710      -8.63375043      11.46187760
Br      11.01242163      -9.77333831      12.62949652
C       -0.00445707       0.01189536      -1.78238275
H       -0.66409135       0.67374010      -2.43557963
H        0.65740317      -0.63156657      -2.45157240
C       -0.90989263      -0.90692880      -0.91072765
C        0.90977584       0.90977584      -0.90977584
C       -0.00465871       1.77757030       0.00794375
H       -0.66225468       2.44313916      -0.64384735
H        0.64322798       2.43503045       0.67728295
C       -1.78241447       0.00034974      -0.00472694
H       -2.45427497      -0.65498947       0.64260836
H       -2.43311707       0.67328779      -0.65473579
C       -0.91132561       0.90220522       0.91563759
C       -0.01476271      -0.02253852       1.78660255
H       -0.67934791      -0.69751639       2.42135241
H        0.63392994       0.61504881       2.47327442
C        0.01484550      -1.77751727      -0.01636693
H        0.67870853      -2.42144646      -0.68295456
H       -0.62264859      -2.45592969       0.64226336
C        1.78714474       0.01002794       0.00389507
H        2.44202412       0.67113390       0.66197326
H        2.45385902      -0.65136977      -0.64189061
C        0.91606151      -0.90478549       0.90901405
