138
Properties=species:S:1:pos:R:3 pbc="F F F"
C        1.79153429       1.79153429      -1.79153429
C        2.29412976       1.28975126      -2.98891559
C        3.09855862       2.09907967      -3.79722839
C        3.41737850       3.40838359      -3.40901368
C        2.88884744       3.90084043      -2.20729882
C        2.08221911       3.09504498      -1.39746805
C        4.22908818       4.30524666      -4.24676020
C        5.22496947       3.89895253      -5.04989425
C        5.98973425       4.81248728      -5.87139845
C        6.95414201       4.39768040      -6.70819705
C        7.74779461       5.28532704      -7.57186888
C        7.21485734       6.44556763      -8.15120472
C        7.99241174       7.24288910      -8.99705355
C        9.30574554       6.87595494      -9.27858391
C        9.84690547       5.71802902      -8.72636760
C        9.06698719       4.92372310      -7.88025369
Br      10.35622842       7.95041655     -10.42480949
H        2.06279897       0.27698028      -3.30761169
H        3.46022020       1.69471318      -4.73951090
H        3.10506723       4.91746785      -1.88545865
H        1.68720214       3.49489717      -0.46731958
H        3.97995463       5.36207426      -4.17755736
H        5.49395117       2.84670153      -5.10614380
H        5.75266586       5.87019546      -5.78304093
H        7.20132741       3.34014555      -6.77454892
H        6.18439012       6.73763144      -7.96381384
H        7.56068800       8.13970183      -9.43333858
H       10.86903464       5.42244484      -8.94724721
H        9.50394535       4.02105957      -7.45812285
C       -1.79153429      -1.79153429      -1.79153429
C       -2.50678647      -2.84229749      -1.22371265
C       -3.31655870      -3.64692625      -2.03138173
C       -3.40648583      -3.41652373      -3.41176621
C       -2.69081244      -2.34383585      -3.96233840
C       -1.88170374      -1.53571520      -3.15731320
C       -4.27468519      -4.21532292      -4.29108692
C       -4.54741092      -5.51704315      -4.10936218
C       -5.42073816      -6.26369797      -4.98918384
C       -5.72820825      -7.55342822      -4.77838299
C       -6.62042925      -8.34914118      -5.63542010
C       -7.73232776      -7.79443004      -6.28487189
C       -8.57760714      -8.59358527      -7.06116199
C       -8.32180180      -9.95697287      -7.18150973
C       -7.23236951     -10.52898318      -6.52994940
C       -6.38869317      -9.72682785      -5.75544296
Br      -9.46575400     -11.03875517      -8.22694529
H       -2.44920909      -3.04119772      -0.15698413
H       -3.88490359      -4.44670908      -1.56283162
H       -2.75127216      -2.12938587      -5.02733569
H       -1.33130733      -0.71269449      -3.60541707
H       -4.69944498      -3.68149820      -5.13864307
H       -4.10768840      -6.06191527      -3.27719283
H       -5.82575468      -5.73264919      -5.84749839
H       -5.30119862      -8.08460999      -3.93021328
H       -7.96407363      -6.73679486      -6.18496690
H       -9.43234251      -8.14290937      -7.55847654
H       -7.03088357     -11.59349536      -6.61434777
H       -5.54263721     -10.18928276      -5.25120781
C       -1.79153429       1.79153429       1.79153429
C       -2.40923965       2.91486524       1.24869172
C       -3.21917923       3.71963299       2.05605447
C       -3.40623096       3.41618491       3.41235990
C       -2.78831390       2.27197218       3.93670060
C       -1.97939749       1.46361334       3.13172131
C       -4.27909764       4.21458904       4.28740835
C       -4.46495942       5.53880975       4.17004708
C       -5.34596364       6.28553696       5.04211938
C       -5.56536316       7.60160037       4.89305593
C       -6.46098515       8.39967516       5.74433022
C       -7.64046920       7.87740804       6.29375246
C       -8.48419161       8.68069089       7.06747189
C       -8.15826257      10.01676127       7.28526056
C       -7.00004277      10.55775825       6.73350107
C       -6.15819899       9.75148110       5.96128389
Br      -9.29977904      11.10442482       8.32725061
H       -2.27536630       3.17086684       0.20115781
H       -3.71097511       4.57819993       1.60526925
H       -2.92584762       2.00075086       4.98139524
H       -1.50557547       0.58416026       3.55968316
H       -4.78474360       3.65983552       5.07500713
H       -3.94470693       6.10277474       3.39931484
H       -5.83243245       5.73172698       5.84174282
H       -5.05758976       8.15361827       4.10481385
H       -7.92609639       6.84337182       6.11636719
H       -9.39215782       8.25515155       7.48641904
H       -6.74322792      11.60138429       6.89411448
H       -5.25778249      10.18968520       5.53566008
C        1.79153429      -1.79153429       1.79153429
C        1.75320663      -1.64424003       3.17534995
C        2.55840361      -2.45446228       3.98200080
C        3.41628583      -3.40629742       3.41219252
C        3.42911225      -3.55033788       2.01753655
C        2.62360794      -2.74330129       1.20782290
C        4.25200976      -4.30374071       4.22534457
C        4.79176745      -3.97300156       5.40904724
C        5.59559345      -4.89160767       6.18641886
C        6.09540553      -4.57347237       7.39114156
C        6.90494889      -5.47664688       8.22339475
C        6.69659184      -6.86285353       8.25218432
C        7.46371054      -7.68276037       9.08588348
C        8.43642403      -7.11754599       9.90631438
C        8.64601292      -5.74108043       9.90420875
C        7.87793063      -4.92438952       9.06864383
Br       9.47093071      -8.22405648      11.03646727
H        1.09858642      -0.91068504       3.63811949
H        2.49446565      -2.33875102       5.06122762
H        4.07238432      -4.29010283       1.54550658
H        2.65289261      -2.86792018       0.12860610
H        4.42759629      -5.29034540       3.80164456
H        4.63895761      -2.98072359       5.82711531
H        5.78724087      -5.86899062       5.74967076
H        5.91855058      -3.58570645       7.81176485
H        5.92626554      -7.32214447       7.63742539
H        7.28788121      -8.75517082       9.09067638
H        9.39898119      -5.29285557      10.54688993
H        8.05270241      -3.85049208       9.07993328
C       -0.00445707       0.01189536      -1.78238275
H       -0.66409135       0.67374010      -2.43557963
H        0.65740317      -0.63156657      -2.45157240
C       -0.90989263      -0.90692880      -0.91072765
C        0.90977584       0.90977584      -0.90977584
C       -0.00465871       1.77757030       0.00794375
H       -0.66225468       2.44313916      -0.64384735
H        0.64322798       2.43503045       0.67728295
C       -1.78241447       0.00034974      -0.00472694
H       -2.45427497      -0.65498947       0.64260836
H       -2.43311707       0.67328779      -0.65473579
C       -0.91132561       0.90220522       0.91563759
C       -0.01476271      -0.02253852       1.78660255
H       -0.67934791      -0.69751639       2.42135241
H        0.63392994       0.61504881       2.47327442
C        0.01484550      -1.77751727      -0.01636693
H        0.67870853      -2.42144646      -0.68295456
H       -0.62264859      -2.45592969       0.64226336
C        1.78714474       0.01002794       0.00389507
H        2.44202412       0.67113390       0.66197326
H        2.45385902      -0.65136977      -0.64189061
C        0.91606151      -0.90478549       0.90901405
