141
Properties=species:S:1:pos:R:3 pbc="F F F"
C        0.00000000       0.00000000       0.00000000
C        0.88255248       0.88255248      -0.88255248
C        1.68429637       0.30139928      -1.85744013
C        2.49364278       1.10865236      -2.66189500
C        2.52243904       2.50299832      -2.48690840
C        1.69115824       3.07065610      -1.51377850
C        0.87651037       2.26454989      -0.71075730
C        3.37364701       3.38118169      -3.31188366
C        4.57930296       2.99692115      -3.74975242
C        5.44663701       3.78773772      -4.52382269
C        6.18082231       4.45714244      -5.17906307
C        7.02471560       5.22658284      -5.93220352
C        7.75890826       5.89599326      -6.58744754
C        8.62624232       6.68680982      -7.36151781
C        9.82238617       6.28020259      -7.80683505
C       10.68508994       7.14593979      -8.62792016
C       11.41875471       6.58624073      -9.67970678
C       12.23886595       7.38687759     -10.48347489
C       12.33704442       8.75416540     -10.22871496
C       11.63228063       9.32507379      -9.17437741
C       10.81592284       8.52174897      -8.37194591
H        1.69067131      -0.77712453      -2.00500658
H        3.09855355       0.63112324      -3.42975153
H        1.67842263       4.14734833      -1.35863009
H        0.24628108       2.72403100       0.04636910
H        2.99237325       4.37564682      -3.52806989
H        4.96476999       2.01329500      -3.49295483
H        8.25953569       7.68040330      -7.60757461
H       10.18641441       5.27760071      -7.59990872
H       11.34683774       5.52209128      -9.89655880
H       12.79091680       6.93598536     -11.30352365
H       11.70804405      10.38840566      -8.96456306
H       10.28566715       8.98541181      -7.54329011
C       13.17330731       9.58017501     -11.06056380
C       13.87367748      10.27195805     -11.75723722
Br      15.00611681      11.39051273     -12.88369920
C       -0.88255248      -0.88255248      -0.88255248
C       -0.97005561      -0.62738099      -2.24569918
C       -1.77988121      -1.43266112      -3.05164781
C       -2.52389281      -2.48941206      -2.49904090
C       -2.40505474      -2.74324477      -1.12729333
C       -1.59097450      -1.94120111      -0.31964195
C       -3.39595294      -3.35029874      -3.32046067
C       -4.07317892      -2.87811007      -4.37468755
C       -4.93213111      -3.63774516      -5.18832115
C       -5.65921621      -4.28075764      -5.87705397
C       -6.49495546      -5.01985528      -6.66869122
C       -7.22204826      -5.66287197      -7.35742884
C       -8.08100045      -6.42250706      -8.17106244
C       -8.73743688      -5.93834496      -9.23364197
C       -9.61419322      -6.78363127     -10.06112540
C       -9.63257060      -6.60355626     -11.44857536
C      -10.44831011      -7.39979541     -12.26111291
C      -11.26070978      -8.37506094     -11.68415406
C      -11.27228929      -8.55440350     -10.30503905
C      -10.45795229      -7.75545217      -9.49621326
H       -0.41447811       0.19284210      -2.69691735
H       -1.81742977      -1.22341146      -4.11858709
H       -2.95680885      -3.56025556      -0.66733664
H       -1.52067247      -2.14837651       0.74510600
H       -3.49217921      -4.38883130      -3.01507945
H       -3.99789184      -1.82780582      -4.64532216
H       -8.17977183      -7.47020600      -7.89753576
H       -8.62029930      -4.90275908      -9.54086546
H       -8.99836693      -5.85204307     -11.91507782
H      -10.43923729      -7.25348193     -13.33770659
H      -11.90714112      -9.30744629      -9.84642535
H      -10.49370620      -7.90157313      -8.41908973
C      -12.09340215      -9.20076067     -12.51988329
C      -12.79078202      -9.89228420     -13.21980652
Br     -13.91838627     -11.01041927     -14.35152319
C       -0.88255248       0.88255248       0.88255248
C       -1.73444138       1.81137979       0.29731461
C       -2.53874703       2.62046482       1.10497829
C       -2.48545156       2.52088298       2.50601122
C       -1.63650834       1.56397676       3.07510773
C       -0.83415581       0.74966178       2.26799998
C       -3.31299001       3.36759971       3.38612263
C       -3.61638128       4.63423722       3.07535803
C       -4.38438345       5.49954808       3.87426589
C       -5.03448642       6.23202167       4.55051972
C       -5.78172255       7.07394587       5.32783354
C       -6.43182903       7.80642665       6.00409339
C       -7.19983121       8.67173750       6.80300124
C       -7.50941929       9.93139418       6.46861035
C       -8.33106996      10.79018832       7.33769161
C       -9.26670101      11.65646026       6.76154095
C      -10.06887171      12.47670752       7.56363919
C       -9.92838157      12.44117493       8.95036827
C       -8.98886751      11.60246557       9.54039876
C       -8.18748361      10.78627990       8.73585421
H       -1.78547546       1.91792491      -0.78484700
H       -3.21013166       3.32726226       0.62203440
H       -1.57829983       1.45059717       4.15550405
H       -0.17388290       0.02013173       2.72992835
H       -3.64601807       2.92766914       4.32240276
H       -3.24364832       5.07387879       2.15349271
H       -7.56126077       8.24897002       7.73728280
H       -7.18626302      10.35567625       5.52198457
H       -9.39412104      11.69021271       5.68115407
H      -10.79869443      13.13346520       7.09826617
H       -8.86805162      11.57321773      10.61974342
H       -7.44847732      10.14937046       9.21652128
C      -10.75935933      13.27787840       9.77680839
C      -11.45530320      13.97861755      10.46895199
Br     -12.58058557      15.11165350      11.58808966
C        0.88255248      -0.88255248       0.88255248
C        1.09039137      -2.21303981       0.53970459
C        1.89477727      -3.02046479       1.34894808
C        2.48417055      -2.50982160       2.51835362
C        2.27992968      -1.16125252       2.83441064
C        1.47895576      -0.35004406       2.02281774
C        3.32895158      -3.33864498       3.39911579
C        3.08983485      -4.64156912       3.59457256
C        3.84325753      -5.48384365       4.43109624
C        4.48101462      -6.19682026       5.13919294
C        5.21406576      -7.01632728       5.95310892
C        5.85182640      -7.72930982       6.66121284
C        6.60524908      -8.57158435       7.49773653
C        6.36320821      -9.87801243       7.66820317
C        7.19471501     -10.71777668       8.54645820
C        7.49601551     -12.02844074       8.16024598
C        8.29296186     -12.84607878       8.97017779
C        8.78325656     -12.35653987      10.18012834
C        8.47672669     -11.06376039      10.59124475
C        7.67822717     -10.25063628       9.78075428
H        0.63506371      -2.63704998      -0.35356032
H        2.05642825      -4.05372242       1.04927765
H        2.73032616      -0.72880450       3.72527039
H        1.32423547       0.69179260       2.29150012
H        4.14510344      -2.83787450       3.91311202
H        2.24607624      -5.12076845       3.10417512
H        7.43987471      -8.09834534       8.00929355
H        5.55551002     -10.37265547       7.13575835
H        7.12763984     -12.42279693       7.21505105
H        8.52652801     -13.85681975       8.64707805
H        8.84900051     -10.67641090      11.53560136
H        7.43773048      -9.24848772      10.12815086
C        9.61062569     -13.19371384      11.00970659
C       10.30354733     -13.89484705      11.70447837
Br      11.42394303     -15.02852014      12.82786557
