138
Properties=species:S:1:pos:R:3 pbc="F F F"
C        1.77202259       1.77202259      -1.77202259
C        3.05420233       2.04563832      -1.50337990
C        3.90803453       2.90015269      -2.33880236
C        4.88795670       3.68398043      -1.72322107
C        5.74240254       4.49214263      -2.48486373
C        5.65968656       4.52979085      -3.88674004
C        4.68270309       3.72278388      -4.49334139
C        3.82107475       2.91905855      -3.73389944
C        6.56775668       5.37774674      -4.68962604
C        7.93032132       5.49911983      -4.36847428
C        8.79220644       6.30618305      -5.12346201
C        8.31545401       7.02152901      -6.22554238
C        6.96713824       6.89255969      -6.57035903
C        6.10633026       6.09148363      -5.80811778
C        9.18852965       7.85186061      -7.06449836
C       10.18656980       8.60509022      -6.58729983
Br      11.27826486       9.66377248      -7.65059399
H        1.24525390       2.16448267      -2.63354720
H        3.51777364       1.64216213      -0.60606886
H        4.99366536       3.68625091      -0.64035046
H        6.47312576       5.10523630      -1.96086536
H        4.59099847       3.69337196      -5.57729742
H        3.09680945       2.29840545      -4.25598105
H        8.34736868       4.94668530      -3.52861717
H        9.84170414       6.34966222      -4.84248188
H        6.56368466       7.42468090      -7.42941108
H        5.05831851       6.04254060      -6.09716838
H        8.96982752       7.84888823      -8.12976948
H       10.43426427       8.67089299      -5.53456263
C       -1.77202259      -1.77202259      -1.77202259
C       -1.35913587      -2.32583569      -2.91824899
C       -2.20152964      -3.16680814      -3.77865180
C       -2.01499812      -3.11719674      -5.16296333
C       -2.77766384      -3.92337163      -6.01837343
C       -3.73770401      -4.81929679      -5.51921664
C       -3.90154389      -4.87236423      -4.12492024
C       -3.14573741      -4.06157691      -3.26671841
C       -4.53649617      -5.67520507      -6.42342822
C       -3.95841768      -6.29566428      -7.54383347
C       -4.71354833      -7.10244988      -8.40585330
C       -6.07591799      -7.31217786      -8.17442955
C       -6.65934523      -6.71970193      -7.05100980
C       -5.90327308      -5.90664227      -6.19601633
C       -6.89759604      -8.17607224      -9.03122034
C       -6.77353538      -8.24332333     -10.36210112
Br      -7.82420898      -9.32652134     -11.44190101
H       -2.77390315      -1.89183798      -1.37754264
H       -0.34759240      -2.14425863      -3.27415359
H       -1.28101218      -2.44175068      -5.59750388
H       -2.61617676      -3.83227872      -7.09077194
H       -4.61294503      -5.56664882      -3.68207399
H       -3.29864748      -4.15804810      -2.19450037
H       -2.89730849      -6.17301705      -7.75234561
H       -4.21223459      -7.57393218      -9.24768146
H       -7.71440398      -6.87107559      -6.83229707
H       -6.40556240      -5.44347807      -5.34898703
H       -7.65733838      -8.76659660      -8.52455026
H       -6.05536028      -7.65923149     -10.92512813
C       -1.77202259       1.77202259       1.77202259
C       -3.07529003       1.97888790       1.54904262
C       -3.92993272       2.83258609       2.38447077
C       -4.96879983       3.54615846       1.78019990
C       -5.82513040       4.35029979       2.54397871
C       -5.68481825       4.45343631       3.93796289
C       -4.64823891       3.71620623       4.53438322
C       -3.78484246       2.91689528       3.77229499
C       -6.59468565       5.29684929       4.74359452
C       -7.97367356       5.34602675       4.47821512
C       -8.83766283       6.14846127       5.23572739
C       -8.34675953       6.93145253       6.28431335
C       -6.98065444       6.87513669       6.57426583
C       -6.11831273       6.07831135       5.80930759
C       -9.21938928       7.76035419       7.12514515
C      -10.26912060       8.44874344       6.66109580
Br     -11.36055813       9.50623061       7.72584259
H       -1.22710058       2.22420676       2.59197643
H       -3.55816263       1.51680287       0.69103913
H       -5.12030746       3.49601166       0.70394762
H       -6.60382783       4.90807510       2.02732450
H       -4.50946160       3.73871710       5.61348915
H       -3.01233745       2.35121619       4.28764231
H       -8.40108094       4.73977843       3.68181178
H       -9.89902166       6.13493865       4.99988792
H       -6.56510256       7.46138336       7.39129073
H       -5.05785314       6.08667463       6.05349973
H       -8.95581546       7.81381058       8.17885920
H      -10.56388217       8.45732532       5.61851240
C        1.77202259      -1.77202259       1.77202259
C        1.35568101      -2.33503762       2.91250192
C        2.19796030      -3.17611681       3.77291247
C        2.00298951      -3.13580577       5.15636291
C        2.76536681      -3.94252854       6.01151356
C        3.73362007      -4.82981214       5.51278524
C        3.90597929      -4.87365357       4.11919550
C        3.15045011      -4.06226161       3.26132101
C        4.53212977      -5.68634290       6.41665679
C        3.95114902      -6.31682154       7.52994487
C        4.70595621      -7.12423851       8.39165678
C        6.07088351      -7.32456561       8.16707629
C        6.65739634      -6.72201991       7.05064071
C        5.90156913      -5.90837626       6.19598627
C        6.89260486      -8.18866651       9.02361725
C        6.76110964      -8.26452952      10.35332068
Br       7.81180439      -9.34789892      11.43292802
H        2.77690095      -1.88359718       1.38278563
H        0.34100138      -2.16153192       3.26347133
H        1.26246914      -2.46727963       5.59051797
H        2.59703064      -3.85874230       7.08345449
H        4.62407615      -5.56110139       3.67649031
H        3.31024036      -4.15147753       2.18947807
H        2.88812244      -6.20166238       7.73288633
H        4.20249553      -7.60364320       9.22770951
H        7.71460292      -6.86587970       6.83729402
H        6.40608528      -5.43725283       5.35468938
H        7.65880243      -8.77169498       8.51798783
H        6.03618409      -7.68802240      10.91551341
C       -0.00445707       0.01189536      -1.78238275
H       -0.66409135       0.67374010      -2.43557963
H        0.65740317      -0.63156657      -2.45157240
C       -0.90989263      -0.90692880      -0.91072765
C        0.90977584       0.90977584      -0.90977584
C       -0.00465871       1.77757030       0.00794375
H       -0.66225468       2.44313916      -0.64384735
H        0.64322798       2.43503045       0.67728295
C       -1.78241447       0.00034974      -0.00472694
H       -2.45427497      -0.65498947       0.64260836
H       -2.43311707       0.67328779      -0.65473579
C       -0.91132561       0.90220522       0.91563759
C       -0.01476271      -0.02253852       1.78660255
H       -0.67934791      -0.69751639       2.42135241
H        0.63392994       0.61504881       2.47327442
C        0.01484550      -1.77751727      -0.01636693
H        0.67870853      -2.42144646      -0.68295456
H       -0.62264859      -2.45592969       0.64226336
C        1.78714474       0.01002794       0.00389507
H        2.44202412       0.67113390       0.66197326
H        2.45385902      -0.65136977      -0.64189061
C        0.91606151      -0.90478549       0.90901405
