125
Properties=species:S:1:pos:R:3 pbc="F F F"
C        0.00000000       0.00000000       0.00000000
C        0.86211857       0.86211857      -0.86211857
C        2.14429830       1.13573429      -0.59347588
C        2.99813050       1.99024866      -1.42889834
C        3.97805267       2.77407640      -0.81331705
C        4.83249852       3.58223861      -1.57495971
C        4.74978253       3.61988682      -2.97683602
C        3.77279907       2.81287985      -3.58343736
C        2.91117072       2.00915452      -2.82399541
C        5.65785265       4.46784272      -3.77972202
C        7.02041730       4.58921581      -3.45857025
C        7.88230242       5.39627903      -4.21355798
C        7.40554999       6.11162499      -5.31563836
C        6.05723421       5.98265566      -5.66045500
C        5.19642623       5.18157961      -4.89821376
C        8.27862562       6.94195659      -6.15459433
C        9.27666577       7.69518619      -5.67739581
H        0.33534987       1.25457864      -1.72364317
H        2.60786961       0.73225811       0.30383517
H        4.08376134       2.77634689       0.26955356
H        5.56322174       4.19533227      -1.05096134
H        3.68109444       2.78346794      -4.66739340
H        2.18690542       1.38850143      -3.34607702
H        7.43746466       4.03678127      -2.61871315
H        8.93180011       5.43975819      -3.93257786
H        5.65378063       6.51477688      -6.51950705
H        4.14841449       5.13263657      -5.18726436
H        8.05992350       6.93898421      -7.21986546
H        9.52436025       7.76098897      -4.62465860
C       10.12385937       8.51676071      -6.50254932
C       10.83338402       9.20482936      -7.19361538
Br      11.98062535      10.31737819      -8.31101076
C       -0.86211857      -0.86211857      -0.86211857
C       -0.45359192      -1.40462161      -2.01529495
C       -1.29612695      -2.24546408      -2.87568648
C       -1.12003315      -2.18450150      -4.26091146
C       -1.88305930      -2.99000435      -5.11663318
C       -2.83294811      -3.89647060      -4.61708667
C       -2.98625387      -3.96079607      -3.22206634
C       -2.23009960      -3.15075110      -2.36346995
C       -3.63209463      -4.75161458      -5.52170818
C       -3.05771577      -5.35974507      -6.65074251
C       -3.81325092      -6.16575605      -7.51313246
C       -5.17235103      -6.38705431      -7.27340799
C       -5.75185435      -5.80696629      -6.14152424
C       -4.99547417      -4.99462400      -5.28612143
C       -5.99397963      -7.25069290      -8.13050402
C       -5.87912082      -7.30742696      -9.46269999
H       -1.86021174      -0.99206423      -0.46129572
H        0.55399824      -1.21312580      -2.37716499
H       -0.39412446      -1.50061375      -4.69581645
H       -1.73003929      -2.88999713      -6.18947892
H       -3.68938249      -4.66341706      -2.77915622
H       -2.37450552      -3.25607262      -1.29090573
H       -1.99906477      -5.22787987      -6.86601444
H       -3.31468223      -6.62748764      -8.36196630
H       -6.80417357      -5.96758608      -5.91630492
H       -5.49492050      -4.54125474      -4.43214019
H       -6.74573195      -7.85037166      -7.62266955
H       -5.16929704      -6.71407575     -10.02663503
C       -6.69446247      -8.14786199     -10.30084493
C       -7.37731111      -8.85172633     -11.00279132
Br      -8.48141959      -9.98981545     -12.13777926
C       -0.86211857       0.86211857       0.86211857
C       -2.16520767       1.06961636       0.63868445
C       -3.01984278       1.92332251       1.47411221
C       -4.05816366       2.63757566       0.86970680
C       -4.91447749       3.44175534       1.63346400
C       -4.77470038       3.54425618       3.02754881
C       -3.73867382       2.80634953       3.62409293
C       -2.87529282       2.00699660       2.86203125
C       -5.68455211       4.38771236       3.83315292
C       -7.06340941       4.43757128       3.56722266
C       -7.92738006       5.24004993       4.32470944
C       -7.43658705       6.02240318       5.37382310
C       -6.07062570       5.96540104       5.66431814
C       -5.20829721       5.16853535       4.89938704
C       -8.30922174       6.85131803       6.21463678
C       -9.35847537       7.54033447       5.75043794
H       -0.31734915       1.31373712       1.68248542
H       -2.64791601       0.60808699      -0.21971045
H       -4.20924597       2.58793753      -0.20662885
H       -5.69272958       4.00006733       1.11671845
H       -3.60033445       2.82835583       4.70326549
H       -2.10323587       1.44078394       3.37746407
H       -7.49073781       3.83183014       2.77039113
H       -8.98864657       5.22706490       4.08842470
H       -5.65516964       6.55113690       6.48175803
H       -4.14793554       5.17635795       5.14402193
H       -8.04606254       6.90422863       7.26848200
H       -9.65280122       7.54947044       4.70773616
C      -10.20547145       8.36099013       6.57670782
C      -10.91483067       9.04828925       7.26870884
Br     -12.06180453      10.15959380       8.38761597
C        0.86211857      -0.86211857       0.86211857
C        0.45096052      -1.41140852       2.01113943
C        1.29341070      -2.25232883       2.87153796
C        1.11104488      -2.19816730       4.25623394
C        1.87385395      -3.00407326       5.11176963
C        2.82984186      -3.90422462       4.61243890
C        2.98947724      -3.96180517       3.21783388
C        2.23353259      -3.15131484       2.35947323
C        3.62877478      -4.75982714       5.51681547
C        3.05215836      -5.37535765       6.64068735
C        3.80744986      -6.18183328       7.50285629
C        5.16852860      -6.39618640       7.26809834
C        5.75040393      -5.80866318       6.14127777
C        4.99420951      -4.99589047       5.28611962
C        5.99018637      -7.25997873       8.12501145
C        5.86979728      -7.32301488       9.45643561
H        1.86249804      -0.98598507       0.46508858
H       -0.55901496      -1.22586452       2.36944300
H        0.38028315      -1.51933684       4.69093468
H        1.71574658      -2.90940657       6.18436220
H        3.69757567      -4.65943247       2.77494763
H        2.38304796      -3.25133433       1.28710158
H        1.99201885      -5.24902585       6.85191438
H        3.30721990      -6.64941782       8.34749844
H        6.80438024      -5.96373313       5.91995120
H        5.49537586      -4.53664185       4.43629771
H        6.74674071      -7.85417190       7.61786055
H        5.15495487      -6.73521169      10.01984126
C        6.68514934      -8.16354881      10.29447126
C        7.36800669      -8.86749597      10.99632611
Br       8.47212927     -10.00571899      12.13116604
