117
Properties=species:S:1:pos:R:3 pbc="F F F"
C        0.00000000       0.00000000       0.00000000
C        0.86211857       0.86211857      -0.86211857
C        2.14429830       1.13573429      -0.59347588
C        2.99813050       1.99024866      -1.42889834
C        3.97805267       2.77407640      -0.81331705
C        4.83249852       3.58223861      -1.57495971
C        4.74978253       3.61988682      -2.97683602
C        3.77279907       2.81287985      -3.58343736
C        2.91117072       2.00915452      -2.82399541
C        5.65785265       4.46784272      -3.77972202
C        7.02041730       4.58921581      -3.45857025
C        7.88230242       5.39627903      -4.21355798
C        7.40554999       6.11162499      -5.31563836
C        6.05723421       5.98265566      -5.66045500
C        5.19642623       5.18157961      -4.89821376
C        8.27862562       6.94195659      -6.15459433
C        9.27666577       7.69518619      -5.67739581
Br      10.36836083       8.75386846      -6.74068997
H        0.33534987       1.25457864      -1.72364317
H        2.60786961       0.73225811       0.30383517
H        4.08376134       2.77634689       0.26955356
H        5.56322174       4.19533227      -1.05096134
H        3.68109444       2.78346794      -4.66739340
H        2.18690542       1.38850143      -3.34607702
H        7.43746466       4.03678127      -2.61871315
H        8.93180011       5.43975819      -3.93257786
H        5.65378063       6.51477688      -6.51950705
H        4.14841449       5.13263657      -5.18726436
H        8.05992350       6.93898421      -7.21986546
H        9.52436025       7.76098897      -4.62465860
C       -0.86211857      -0.86211857      -0.86211857
C       -0.44633620      -1.42362897      -2.00354331
C       -1.28863418      -2.26469064      -2.86395268
C       -1.09504006      -2.22285488      -4.24755118
C       -1.85746423      -3.02948799      -5.10274462
C       -2.82437738      -3.91818861      -4.60393938
C       -2.99534674      -3.96354270      -3.21022685
C       -2.23977257      -3.15224965      -2.35229844
C       -3.62293291      -4.77461755      -5.50786693
C       -3.04242008      -5.40345858      -6.62232470
C       -3.79727981      -6.21077225      -7.48408737
C       -5.16179521      -6.41263573      -7.25838240
C       -5.74781009      -5.81173599      -6.14079879
C       -4.99194318      -4.99818786      -5.28608855
C       -5.98350930      -7.27670295      -8.11496430
C       -5.85322652      -7.35115440      -9.44486685
Br      -6.90391765      -8.43449586     -10.52450575
H       -1.86651189      -0.97504055      -0.47201924
H        0.56783556      -1.24880341      -2.35532471
H       -0.35558586      -1.55319406      -4.68177474
H       -1.69024552      -2.94450370      -6.17476613
H       -3.71235091      -4.65211175      -2.76749311
H       -2.39844021      -3.24265525      -1.28038842
H       -1.97970194      -5.28707575      -6.82618139
H       -3.29416486      -6.68888220      -8.32108910
H       -6.80467046      -5.95682385      -5.92657025
H       -5.49610052      -4.52836525      -4.44384965
H       -6.74865416      -7.86096004      -7.60915897
H       -5.12940202      -6.77340393     -10.00720186
C       -0.86211857       0.86211857       0.86211857
C       -2.16110224       1.08378912       0.62861712
C       -3.01556713       1.93767250       1.46403788
C       -4.04158534       2.66710388       0.85675690
C       -4.89751842       3.47214166       1.62003675
C       -4.76978492       3.56047532       3.01624513
C       -3.74620581       2.80748633       3.61542415
C       -2.88317742       2.00719346       2.85394978
C       -5.67927860       4.40489865       3.82124014
C       -7.05508225       4.47004109       3.54308001
C       -7.91862881       5.27350709       4.30000353
C       -7.43042827       6.04154890       5.36083616
C       -6.06781401       5.96915734       5.66337353
C       -5.20578841       5.17138775       4.89904344
C       -8.30316997       6.87076097       6.20124561
C       -9.34165787       7.57376649       5.73382341
Br     -10.43316283       8.63151396       6.79824246
H       -0.32086722       1.30106130       1.69164317
H       -2.64003526       0.63470945      -0.23845215
H       -4.18309333       2.62880312      -0.22134179
H       -5.66574436       4.04241593       1.10135505
H       -3.61772091       2.81825009       4.69598477
H       -2.12120673       1.42908896       3.37118818
H       -7.48054317       3.87567873       2.73673718
H       -8.97772448       5.27258124       4.05383044
H       -5.65460074       6.54343658       6.49002724
H       -4.14772284       5.16708302       5.15350956
H       -8.04935518       6.91149808       7.25791991
H       -9.62616813       7.59525798       4.68858171
C        0.86211857      -0.86211857       0.86211857
C        0.44290459      -1.43295885       1.99764503
C        1.28508687      -2.27412949       2.85806115
C        1.08297691      -2.24177348       4.24069572
C        1.84511237      -3.04896292       5.09562154
C        2.82031727      -3.92885155       4.59733656
C        2.99988490      -3.96480017       3.20443122
C        2.24458751      -3.15289357       2.34683958
C        3.61859093      -4.78591211       5.50091436
C        3.03521855      -5.42490318       6.60808162
C        3.78975467      -6.23285788       7.46952688
C        5.15678428      -6.42519960       7.25082945
C        5.74584524      -5.81409712       6.14040251
C        4.99022233      -4.99995662       5.28604065
C        5.97854464      -7.28947499       8.10715691
C        5.84076409      -7.37270062       9.43578306
Br       6.89147854      -8.45621499      10.51522573
H        1.86948692      -0.96668615       0.47739862
H       -0.57438507      -1.26631794       2.34435969
H        0.33692616      -1.57916864       4.67445986
H        1.67098000      -2.97142844       6.16710690
H        3.72365101      -4.64639560       2.76190916
H        2.41020105      -3.23590095       1.27538187
H        1.97062002      -5.31610350       6.80623556
H        3.28452953      -6.71899199       8.30061464
H        6.80482084      -5.95157346       5.93167027
H        5.49657097      -4.52207182       4.44967264
H        6.75019942      -7.86609511       7.60247864
H        5.11012938      -6.80267984       9.99719859
