141
Properties=species:S:1:pos:R:3 pbc="F F F"
C        0.00000000       0.00000000       0.00000000
C        0.86236086       0.86236086      -0.86236086
C        1.30761348       0.49716333      -2.07057853
C        2.15150518       1.33754664      -2.93128813
C        2.02075137       1.22397289      -4.32205836
C        2.82809971       1.97806587      -5.18005711
C        3.78516034       2.84750016      -4.65634846
C        3.93345275       2.95963733      -3.27367968
C        3.12596306       2.20423638      -2.41630297
C        4.62027269       3.60785448      -5.53352465
C        5.32482604       4.23263447      -6.27779193
C        6.22823936       5.01719700      -7.23370844
C        6.93753533       5.61913359      -7.99218632
C        7.78286404       6.32636990      -8.90422080
C        7.58484699       7.68805138      -9.13338985
C        8.40623395       8.37616202     -10.03389673
C        9.44200701       7.71348731     -10.70661043
C        9.62194848       6.34234509     -10.47813540
C        8.80124888       5.65310390      -9.57881436
C       10.30671624       8.38413389     -11.68764117
C       10.66944099       9.67096922     -11.62404821
H        1.08031381       1.82188562      -0.40905756
H        1.02933049      -0.47208660      -2.47855991
H        1.28406098       0.55027090      -4.75527640
H        2.70589421       1.87654891      -6.25595175
H        4.68316866       3.62584887      -2.85244484
H        3.28097180       2.29518506      -1.34399176
H        6.78767902       8.22228172      -8.62180740
H        8.21153203       9.43124266     -10.20886726
H       10.40831905       5.79479426     -10.99403336
H        8.96301436       4.59031147      -9.41442587
H       10.67659133       7.76060023     -12.49905542
H       10.36023331      10.34243750     -10.83213408
C       11.52436054      10.30901041     -12.59132066
C       12.24035567      10.84336991     -13.40141133
Br      13.39805923      11.70738403     -14.71125944
C       -0.86236086      -0.86236086      -0.86236086
C       -1.23197399      -2.10681087      -0.53657048
C       -2.08416507      -2.96354496      -1.37262993
C       -2.93654223      -3.88338212      -0.74685828
C       -3.73924917      -4.74360416      -1.50336936
C       -3.69028631      -4.70179441      -2.89692824
C       -2.83625057      -3.79925441      -3.53126478
C       -2.03307963      -2.93980896      -2.77361382
C       -4.50034834      -5.59097004      -3.67033344
C       -5.17486956      -6.34962312      -4.31075976
C       -6.02928510      -7.32901023      -5.12084947
C       -6.69544110      -8.10815274      -5.74526139
C       -7.48747938      -9.04571406      -6.48026130
C       -8.64494596      -8.62558807      -7.13575420
C       -9.42431007      -9.54622446      -7.84575817
C       -9.04920684     -10.89476704      -7.91813087
C       -7.89162628     -11.30698321      -7.24381948
C       -7.11200565     -10.38798479      -6.53317672
C       -9.85343902     -11.90476711      -8.62028517
C      -10.58559630     -11.66421095      -9.71465116
H       -1.16667377      -0.36768997      -1.77689325
H       -0.91204285      -2.53474228       0.41098133
H       -2.99034510      -3.93794317       0.33867999
H       -4.39616570      -5.44628878      -0.99594039
H       -2.78056487      -3.76381786      -4.61707964
H       -1.36020478      -2.26406521      -3.29587863
H       -8.95438121      -7.58392766      -7.09345927
H      -10.33322390      -9.19254808      -8.32586998
H       -7.57928872     -12.34917726      -7.26868069
H       -6.21544564     -10.73054856      -6.02175751
H       -9.81548795     -12.91153562      -8.20922341
H      -10.64909767     -10.69376414     -10.19194308
C      -11.36166600     -12.66925355     -10.39377207
C      -12.01162436     -13.51097673     -10.96253582
Br     -13.06255207     -14.87197192     -11.88217871
C       -0.86236086       0.86236086       0.86236086
C       -1.22333216       2.11060218       0.54142100
C       -2.07540924       2.96742470       1.37750602
C       -2.91925608       3.89537498       0.75215157
C       -3.72139224       4.75584889       1.50898156
C       -3.68035339       4.70611936       2.90253621
C       -2.83480034       3.79540953       3.53655988
C       -2.03218965       2.93571588       2.77859688
C       -4.48977872       5.59549384       3.67637926
C       -5.16364984       6.35433155       4.31727105
C       -6.01713458       7.33395822       5.12805199
C       -6.68243983       8.11332649       5.75308892
C       -7.47336429       9.05119655       6.48889389
C       -8.63672090       8.63387425       7.13569308
C       -9.41492652       9.55488715       7.84647903
C       -9.03283057      10.90092081       7.92835337
C       -7.86929953      11.31043621       7.26269323
C       -7.09082488      10.39106332       6.55127896
C       -9.83536955      11.91147505       8.63164669
C      -10.57486666      11.66895982       9.72063194
H       -1.17442891       0.36436402       1.77246405
H       -0.89583047       2.54195662      -0.40198329
H       -2.96676517       3.95619108      -0.33334798
H       -4.37162985       5.46492449       1.00184054
H       -2.78530501       3.75370544       4.62245192
H       -1.36592819       2.25341080       3.30080963
H       -8.95163209       7.59418582       7.08595023
H      -10.32840492       9.20360319       8.31963384
H       -7.55138695      12.35073796       7.29502177
H       -6.18958810      10.73147508       6.04668853
H       -9.78962317      12.92026031       8.22636349
H      -10.64632878      10.69627260      10.19220352
C      -11.34914407      12.67452774      10.40101980
C      -11.99760141      13.51669088      10.97084463
Br     -13.04610208      14.87839743      11.89220319
C        0.86236086      -0.86236086       0.86236086
C        1.17213823      -0.57163406       2.13158305
C        2.01433154      -1.41355217       2.99245625
C        1.75993926      -1.43634413       4.37049924
C        2.55834301      -2.19537687       5.23250281
C        3.62936949      -2.93262532       4.72701415
C        3.90037456      -2.90769128       3.35870392
C        3.10166200      -2.14742772       2.49741269
C        4.45431473      -3.69730900       5.61002809
C        5.14844436      -4.32624485       6.36056323
C        6.03687620      -5.11640110       7.32586749
C        6.73249481      -5.72354803       8.09281239
C        7.55994742      -6.43779524       9.01571208
C        7.46670272      -7.82620125       9.11338427
C        8.26962427      -8.52240063      10.02426780
C        9.18290215      -7.83978581      10.83941678
C        9.25729989      -6.44353880      10.74159028
C        8.45486160      -5.74626711       9.83203844
C       10.02063227      -8.52231042      11.83554860
C       10.50133173      -9.76402995      11.69909673
H        1.20206498      -1.75615411       0.35303790
H        0.77540899       0.33091430       2.59130911
H        0.93264811      -0.86712435       4.78983582
H        2.33942269      -2.20118570       6.29778649
H        4.73893653      -3.46947965       2.95304619
H        3.35189876      -2.12875186       1.43949800
H        6.76547648      -8.37615095       8.49014071
H        8.15662443      -9.60135081      10.09366671
H        9.94625900      -5.88164313      11.36924455
H        8.53360749      -4.66332154       9.77082268
H       10.26506371      -7.94577334      12.72540992
H       10.31981239     -10.38490328      10.83008922
C       11.32755192     -10.41376281      12.68337688
C       12.01951133     -10.95791408      13.50771151
Br      13.13835117     -11.83776066      14.84059087
