61
Properties=species:S:1:pos:R:3 pbc="F F F"
C        0.00000000       0.00000000       0.00000000
C        0.88262020       0.88262020      -0.88262020
C        0.62926401       2.24920789      -0.95591738
C        1.43755851       3.05390105      -1.75571813
C        2.49077750       2.48450869      -2.47893519
Br       3.55204639       3.64374026      -3.54896500
C        2.74668541       1.10329522      -2.41872302
C        1.93351006       0.30642852      -1.60430770
O        3.79799066       0.64552505      -3.16573294
C        3.96816013      -0.75270680      -3.30664249
F        4.97384931      -0.98411719      -4.17778061
F        4.29475140      -1.31904175      -2.12564821
F        2.84945074      -1.33304495      -3.79046180
H       -0.18923693       2.69525517      -0.39656063
H        1.24062289       4.12194640      -1.81087538
H        2.09346418      -0.76372091      -1.50653114
C       -0.88262020      -0.88262020      -0.88262020
C       -0.68648465      -0.88737588      -2.26052876
C       -1.48713018      -1.69633891      -3.06370860
C       -2.48031257      -2.49147057      -2.48243825
Br      -3.53439686      -3.57010642      -3.64024837
C       -2.69194721      -2.48429094      -1.09246550
C       -1.87496270      -1.67443841      -0.29484517
O       -3.68994990      -3.29514911      -0.62414964
C       -4.08263775      -3.16951596       0.73005789
F       -5.15589708      -3.95971546       0.94809981
F       -3.09216504      -3.56616121       1.55696839
F       -4.42963917      -1.89763975       1.02041133
H        0.08332608      -0.26969577      -2.71620918
H       -1.33198736      -1.70143483      -4.14002248
H       -1.98208626      -1.63994471       0.78575656
C       -0.88262020       0.88262020       0.88262020
C       -2.25922649       0.67800462       0.89715817
C       -3.06235482       1.47868622       1.70613665
C       -2.48236920       2.48036883       2.49148336
Br      -3.64002357       3.53396467       3.57076341
C       -1.09381056       2.70054240       2.47435069
C       -0.29614540       1.88348255       1.66461833
O       -0.62670786       3.70644474       3.27609605
C        0.72422866       4.10670674       3.13961773
F        0.94047127       5.18618735       3.92179666
F        1.55971952       3.12385043       3.53722695
F        1.00455096       4.44757892       1.86383963
H       -2.71391945      -0.09843493       0.28709436
H       -4.13763089       1.31692813       1.71888566
H        0.78353530       1.99706688       1.62274282
C        0.88262020      -0.88262020       0.88262020
C        1.58427183      -1.93969235       0.31042511
C        2.39303165      -2.73997244       1.11417360
C        2.49060689      -2.47875944       2.48485506
Br       3.61329102      -3.61205447       3.51940615
C        1.77671598      -1.41953578       3.07245189
C        0.97466416      -0.61657905       2.25300307
O        1.93837319      -1.25009931       4.42077615
C        1.08828216      -0.34001564       5.09379801
F        1.32637228      -0.42043276       6.42070769
F        1.33084600       0.92753717       4.69804903
F       -0.21088393      -0.63794247       4.87980905
H        1.50987736      -2.14685635      -0.75415485
H        2.94283646      -3.56436373       0.66624448
H        0.41266151       0.22490137       2.64851426
