69
Properties=species:S:1:pos:R:3 pbc="F F F"
C        0.00000000       0.00000000       0.00000000
C        0.88262020       0.88262020      -0.88262020
C        0.62926401       2.24920789      -0.95591738
C        1.43755851       3.05390105      -1.75571813
C        2.49077750       2.48450869      -2.47893519
C        2.74668541       1.10329522      -2.41872302
C        1.93351006       0.30642852      -1.60430770
O        3.79799066       0.64552505      -3.16573294
C        3.96816013      -0.75270680      -3.30664249
F        4.97384931      -0.98411719      -4.17778061
F        4.29475140      -1.31904175      -2.12564821
F        2.84945074      -1.33304495      -3.79046180
H       -0.18923693       2.69525517      -0.39656063
H        1.24062289       4.12194640      -1.81087538
H        2.09346418      -0.76372091      -1.50653114
C        3.29454302       3.36246750      -3.28933591
C        3.96769665       4.09775800      -3.96804651
Br       5.05612913       5.28666054      -5.06546415
C       -0.88262020      -0.88262020      -0.88262020
C       -0.42093831      -2.13432023      -1.27913074
C       -1.22808886      -2.94059178      -2.07849706
C       -2.48939507      -2.48675497      -2.47807135
C       -2.95873366      -1.21926342      -2.09070657
C       -2.14252407      -0.42201139      -1.27971082
O       -4.20410728      -0.86851769      -2.53662368
C       -4.63535347       0.46736388      -2.35410623
F       -5.82390757       0.63060865      -2.97421381
F       -4.80211351       0.74426631      -1.04351066
F       -3.75650663       1.34033688      -2.89069785
H        0.55932469      -2.48997718      -0.97192638
H       -0.86785857      -3.91943195      -2.38615414
H       -2.45866608       0.55924832      -0.93685665
C       -3.28189678      -3.36086993      -3.30357973
C       -3.94561695      -4.09294121      -3.99494299
Br      -5.01879635      -5.27663855      -5.11281892
C       -0.88262020       0.88262020       0.88262020
C       -2.24883256       0.62778678       0.95776994
C       -3.05164958       1.42869729       1.76683082
C       -2.48195400       2.48072287       2.49154452
C       -1.10450212       2.75143545       2.41276608
C       -0.30653735       1.93393841       1.60377051
O       -0.64708208       3.80411871       3.15804786
C        0.68143499       4.24866772       2.95486309
F        0.88479314       5.36476331       3.68754256
F        1.56835089       3.31353449       3.35617426
F        0.90089172       4.55029510       1.65746421
H       -2.69559075      -0.18791616       0.39490428
H       -4.11868077       1.22777017       1.82699373
H        0.76566776       2.08580188       1.51614029
C       -3.35788382       3.27650283       3.31195978
C       -4.09147504       3.94296855       3.99905757
Br      -5.27763001       5.02058725       5.11003656
C        0.88262020      -0.88262020       0.88262020
C        2.24525910      -0.61452123       0.97460896
C        3.04799195      -1.41549694       1.78368880
C        2.48184238      -2.48082283       2.49155618
C        1.10816784      -2.76487728       2.39565852
C        0.31011340      -1.94726752       1.58686537
O        0.65407671      -3.82991820       3.12525374
C       -0.66757702      -4.28599127       2.90368156
F       -0.86684358      -5.41168911       3.62266720
F       -1.56826658      -3.36427312       3.30535131
F       -0.87050418      -4.57634185       1.60102992
H        2.68927708       0.21155607       0.42485786
H        4.11219731      -1.20422474       1.85702262
H       -0.75949309      -2.10924870       1.48651879
C        3.35750980      -3.27603351       3.31280312
C        4.09088127      -3.94202245       4.00059744
Br       5.27668090      -5.01887024       5.11270268
