117
Properties=species:S:1:pos:R:3 pbc="F F F"
C        0.00000000       0.00000000       0.00000000
C        0.88675013       0.88675013      -0.88675013
C        0.53270420       2.22477321      -1.03736605
C        1.31740155       3.06754727      -1.82700653
C        2.45075915       2.58984590      -2.50887672
C        2.77614561       1.22526466      -2.35614215
C        2.03019354       0.38324432      -1.51708716
O        2.32780491      -0.93556573      -1.31372249
C        3.70147321      -1.26563526      -1.17798474
F        3.81786601      -2.29276435      -0.30840300
F        4.19606585      -1.65904500      -2.37068287
F        4.44315223      -0.23744713      -0.71021417
C        3.27324735       3.49448512      -3.34440524
C        2.67495812       4.48044650      -4.15002367
C        3.44662504       5.35583755      -4.91525720
C        4.83583690       5.25201009      -4.90378303
C        5.47296046       4.27366101      -4.12795104
C        4.68259679       3.41596990      -3.34749855
O        6.83969636       4.24636160      -4.18868301
C        7.52731737       3.18964688      -3.54656798
F        7.09610679       1.98835313      -3.98601741
F        8.84462138       3.29278579      -3.82665142
F        7.37404391       3.26040317      -2.20734007
Br       5.82240279       6.47481826      -5.97360334
H       -0.34453754       2.62751090      -0.53658014
H        1.03218312       4.11607460      -1.89769369
H        3.61740342       0.82274161      -2.91773266
H        1.59203138       4.57561292      -4.19443479
H        2.95060264       6.11377110      -5.51865606
H        5.14745688       2.67298766      -2.70282042
C       -0.88675013      -0.88675013      -0.88675013
C       -0.42594741      -2.16055538      -1.20834068
C       -1.20569330      -3.00229020      -2.00397185
C       -2.44371372      -2.58300178      -2.52276628
C       -2.87841927      -1.28011988      -2.19901327
C       -2.13182601      -0.44781088      -1.35088813
O       -2.52945840       0.80787593      -0.98437920
C       -3.90649555       0.97905739      -0.68638454
F       -4.02796922       1.90209507       0.29236949
F       -4.55725458       1.42938747      -1.77983661
F       -4.49543770      -0.16011819      -0.26036337
C       -3.25982692      -3.48560179      -3.36670901
C       -2.65844252      -4.32378444      -4.32320133
C       -3.41967911      -5.19875568      -5.09928501
C       -4.80373740      -5.24150221      -4.94639041
C       -5.44595346      -4.41209195      -4.01652710
C       -4.66295656      -3.55413360      -3.22897508
O       -6.80806494      -4.52147756      -3.94519847
C       -7.52155977      -3.60714372      -3.13482873
F       -7.25336281      -2.33152526      -3.48558927
F       -8.84526356      -3.81989499      -3.29890004
F       -7.22387260      -3.78729394      -1.83062060
Br      -5.77672875      -6.45414035      -6.03995529
H        0.53260251      -2.51521371      -0.83694230
H       -0.83196975      -4.00414069      -2.20984098
H       -3.80764397      -0.91620977      -2.63402394
H       -1.58188221      -4.30121425      -4.47898262
H       -2.91998069      -5.84082996      -5.82221916
H       -5.12610090      -2.92750692      -2.46965715
C       -0.88675013       0.88675013       0.88675013
C       -2.22666581       0.53722174       1.03095591
C       -3.06488983       1.31105840       1.83600711
C       -2.59620339       2.46593412       2.48734426
C       -1.23939342       2.80987018       2.30828882
C       -0.37323665       2.00630578       1.55098259
O        0.95441898       2.28280325       1.37757739
C        1.65969409       2.76087618       2.51264061
F        2.92854602       2.30028970       2.46176098
F        1.69508042       4.11005127       2.49273286
F        1.11396188       2.35095915       3.67892199
C       -3.49666138       3.27844197       3.33703437
C       -4.83164846       3.51325811       2.96052172
C       -5.69322320       4.25194625       3.77255035
C       -5.23153078       4.78695391       4.97314532
C       -3.90421956       4.59112378       5.37922918
C       -3.05763489       3.82727061       4.56115974
O       -3.54345721       5.16190180       6.56938196
C       -2.18299198       5.12448683       6.95605342
F       -1.39107460       5.67043540       6.00896734
F       -2.03307834       5.83776814       8.09321212
F       -1.78692963       3.85694264       7.19791487
Br      -6.45937348       5.78553694       6.02591397
H       -2.62885927      -0.34131903       0.53201326
H       -4.09929272       0.99212569       1.95453300
H       -0.86951547       3.72905006       2.75931216
H       -5.21743648       3.12402934       2.02061327
H       -6.72301940       4.40484524       3.45516517
H       -2.03394201       3.62208963       4.86723332
C        0.88675013      -0.88675013       0.88675013
C        2.21910547      -0.51990096       1.05583703
C        3.05686066      -1.29326087       1.86183382
C        2.59586325      -2.46435214       2.48926638
C        1.24704248      -2.82534097       2.28516897
C        0.38022501      -2.02337302       1.52692700
O       -0.94052750      -2.31659645       1.32989272
C       -1.65512297      -2.82163360       2.44731207
F       -2.92977202      -2.37888716       2.38438953
F       -1.67025666      -4.17073909       2.40722129
F       -1.13256959      -2.42110079       3.62738805
C        3.49576036      -3.27612807       3.34024929
C        4.83942022      -3.48586764       2.98014043
C        5.69989954      -4.22384947       3.79397079
C        5.22872122      -4.78322814       4.97968065
C        3.89288119      -4.61279168       5.36889965
C        3.04710455      -3.84934242       4.54961827
O        3.52329243      -5.20630752       6.54514102
C        2.15693149      -5.19444815       6.91215259
F        1.38706326      -5.73781325       5.94560083
F        2.00102605      -5.92657967       8.03645288
F        1.73868196      -3.93652702       7.16657817
Br       6.45572475      -5.77927118       6.03582846
H        2.61549022       0.37169184       0.57575512
H        4.08459588      -0.96107376       2.00028177
H        0.88426576      -3.75638438       2.71722756
H        5.23306718      -3.07719837       2.05181354
H        6.73636097      -4.35701215       3.48965669
H        2.01613672      -3.66365275       4.84347549
