125
Properties=species:S:1:pos:R:3 pbc="F F F"
C        0.00000000       0.00000000       0.00000000
C        0.88675013       0.88675013      -0.88675013
C        0.53270420       2.22477321      -1.03736605
C        1.31740155       3.06754727      -1.82700653
C        2.45075915       2.58984590      -2.50887672
C        2.77614561       1.22526466      -2.35614215
C        2.03019354       0.38324432      -1.51708716
O        2.32780491      -0.93556573      -1.31372249
C        3.70147321      -1.26563526      -1.17798474
F        3.81786601      -2.29276435      -0.30840300
F        4.19606585      -1.65904500      -2.37068287
F        4.44315223      -0.23744713      -0.71021417
C        3.27324735       3.49448512      -3.34440524
C        2.67495812       4.48044650      -4.15002367
C        3.44662504       5.35583755      -4.91525720
C        4.83583690       5.25201009      -4.90378303
C        5.47296046       4.27366101      -4.12795104
C        4.68259679       3.41596990      -3.34749855
O        6.83969636       4.24636160      -4.18868301
C        7.52731737       3.18964688      -3.54656798
F        7.09610679       1.98835313      -3.98601741
F        8.84462138       3.29278579      -3.82665142
F        7.37404391       3.26040317      -2.20734007
H       -0.34453754       2.62751090      -0.53658014
H        1.03218312       4.11607460      -1.89769369
H        3.61740342       0.82274161      -2.91773266
H        1.59203138       4.57561292      -4.19443479
H        2.95060264       6.11377110      -5.51865606
H        5.14745688       2.67298766      -2.70282042
C        5.58323045       6.17837390      -5.71424770
C        6.20917254       6.95420359      -6.39301186
Br       7.22126797       8.20865458      -7.49051610
C       -0.88675013      -0.88675013      -0.88675013
C       -0.44516784      -2.17542753      -1.17424810
C       -1.22583581      -3.01745394      -1.96866559
C       -2.44494102      -2.58451838      -2.52002238
C       -2.85990070      -1.26724099      -2.23041073
C       -2.11358235      -0.43294805      -1.38399461
O       -2.49325372       0.83727977      -1.04998771
C       -3.87216176       1.04113948      -0.78280041
F       -3.99431639       1.98563085       0.17518087
F       -4.49242206       1.48224834      -1.89753000
F       -4.49180653      -0.07765894      -0.34645380
C       -3.26223032      -3.48763779      -3.36226960
C       -2.65909862      -4.35621325      -4.29011642
C       -3.42230554      -5.23143542      -5.06397884
C       -4.80965557      -5.24416679      -4.93780765
C       -5.45325869      -4.38409399      -4.03721984
C       -4.66886128      -3.52607416      -3.25112980
O       -6.81840544      -4.46548662      -3.99084892
C       -7.52924487      -3.52150858      -3.21277879
F       -7.22897647      -2.25857688      -3.58292398
F       -8.85346682      -3.71165168      -3.39894009
F       -7.26065757      -3.68147738      -1.89965219
H        0.49873029      -2.54124232      -0.77704148
H       -0.86815031      -4.03028657      -2.14751453
H       -3.77306201      -0.89401304      -2.69080264
H       -1.57947213      -4.35771778      -4.42488918
H       -2.92147403      -5.89735755      -5.76419823
H       -5.13416849      -2.87558288      -2.51351359
C       -5.54859293      -6.16457050      -5.76268861
C       -6.16745297      -6.93540860      -6.45352642
Br      -7.16809731      -8.18178862      -7.57055272
C       -0.88675013       0.88675013       0.88675013
C       -2.21185391       0.50488333       1.07810623
C       -3.04917418       1.27783631       1.88494485
C       -2.59551717       2.46297185       2.49099275
C       -1.25432839       2.83873246       2.26449157
C       -0.38695406       2.03818223       1.50538873
O        0.92715476       2.34591740       1.28719902
C        1.64949573       2.87485460       2.38846383
F        2.92893595       2.44791175       2.31452887
F        1.64635245       4.22339844       2.33065772
F        1.14763009       2.48313232       3.58041703
C       -3.49488997       3.27411915       3.34312860
C       -4.84575752       3.46163169       2.99803907
C       -5.70523073       4.19902058       3.81346848
C       -5.22609342       4.78002703       4.98550957
C       -3.88318345       4.63209239       5.35929667
C       -3.03814608       3.86897772       4.53894144
O       -3.50619055       5.24578605       6.52276438
C       -2.13514015       5.25650558       6.87188650
F       -1.38510816       5.79705790       5.88831127
F       -1.97429278       6.00533226       7.98443356
F       -1.69710377       4.00758012       7.13710326
H       -2.60267352      -0.39802323       0.61490321
H       -4.07056402       0.93417904       2.04120835
H       -0.89825397       3.78001438       2.67960933
H       -5.24601697       3.03570297       2.08035916
H       -6.74721996       4.31469365       3.52111619
H       -2.00109409       3.70057769       4.82159318
C       -6.15501417       5.53292679       5.78791108
C       -6.93298530       6.16348034       6.45992235
Br      -8.19089882       7.18303209       7.54650774
C        0.88675013      -0.88675013       0.88675013
C        2.20283650      -0.48795624       1.10405072
C        3.03963212      -1.26045838       1.91186485
C        2.59506508      -2.46140557       2.49301112
C        1.26333294      -2.85379980       2.24041968
C        0.39535034      -2.05488820       1.48028648
O       -0.91047231      -2.37899214       1.23744183
C       -1.64113710      -2.93549971       2.31946009
F       -2.92569284      -2.52677658       2.23242092
F       -1.61652393      -4.28280314       2.24142450
F       -1.16330558      -2.55452489       3.52469995
C        3.49380086      -3.27185155       3.34648530
C        4.85241472      -3.43372352       3.01929005
C        5.71068563      -4.17046765       3.83656651
C        5.22289908      -4.77645434       4.99227660
C        3.87241380      -4.65446983       5.34768889
C        3.02825652      -3.89171338       4.52609534
O        3.48737651      -5.29146835       6.49589612
C        2.11155204      -5.32814815       6.82383204
F        1.38474946      -5.86483608       5.82089180
F        1.94544111      -6.09621851       7.92239897
F        1.65054677      -4.09015227       7.10108811
H        2.58674269       0.42769922       0.66051003
H        4.05318609      -0.90389897       2.08886636
H        0.91547370      -3.80656446       2.63583954
H        5.25988332      -2.98785143       2.11434433
H        6.75860123      -4.26596981       3.55845877
H        1.98461752      -3.74327390       4.79537354
C        6.15103454      -5.52746182       5.79735569
C        6.92834799      -6.15643057       6.47160943
Br       8.18519809      -7.17341986       7.56182070
