138
Properties=species:S:1:pos:R:3 pbc="F F F"
C        1.79103797       1.79103797      -1.79103797
C        1.74672371       1.65617880      -3.17182717
C        2.54330458       2.48158905      -3.98256385
C        3.43195938       3.43558001      -3.44174353
C        3.43073230       3.54852860      -2.02841665
C        2.61551206       2.74861342      -1.21277858
O        4.11553077       4.55787501      -1.39822673
C        5.37906992       4.14372187      -0.89811912
F        6.13327995       5.24881913      -0.69605235
F        5.22637065       3.51250437       0.28732949
F        6.03390130       3.33349674      -1.76064252
C        4.31331139       4.26346984      -4.33737008
C        4.57783060       5.61090535      -4.01376867
C        5.47701982       6.39573513      -4.74208859
C        6.09960546       5.86255559      -5.85910494
C        5.83027183       4.55978320      -6.25639765
C        4.93522200       3.76022298      -5.51651069
O        4.70255349       2.45049417      -5.86477902
C        4.64764200       2.16793039      -7.25962623
F        4.00091306       0.99459590      -7.43464052
F        3.97169410       3.11948576      -7.93532932
F        5.88981549       2.04471118      -7.77138274
Br       7.32660490       6.91080571      -6.84357099
H        1.08976878       0.92436675      -3.63695138
H        2.43988113       2.36120078      -5.05476980
H        2.62215620       2.89195781      -0.13735813
H        4.09145235       6.08748936      -3.16596186
H        5.68362786       7.41404809      -4.42225715
H        6.34036469       4.17277469      -7.13178128
C       -1.79103797      -1.79103797      -1.79103797
C       -1.21497027      -2.76589220      -2.59386722
C       -2.02861355      -3.58965415      -3.38918978
C       -3.43149712      -3.44139065      -3.43639516
C       -3.97555345      -2.44432737      -2.58779673
C       -3.17197259      -1.63757467      -1.76735680
O       -5.33215498      -2.32698481      -2.41249273
C       -5.90857967      -1.30234128      -3.20998996
F       -7.23767229      -1.53913381      -3.30134532
F       -5.73225702      -0.09885884      -2.62042967
F       -5.39468285      -1.27266989      -4.46068783
C       -4.26802184      -4.30279652      -4.34333296
C       -5.53783284      -4.74662425      -3.91804753
C       -6.40666581      -5.45177053      -4.75640720
C       -5.99969054      -5.78283095      -6.03874451
C       -4.73670874      -5.42158313      -6.48816080
C       -3.86294298      -4.69794420      -5.65106848
O       -2.63172155      -4.28392777      -6.10217736
C       -1.93398319      -5.18804772      -6.95316770
F       -0.62407463      -4.85679769      -6.94927716
F       -2.04148209      -6.46182584      -6.52320125
F       -2.38757787      -5.09781149      -8.22052005
Br      -7.17125572      -6.72497907      -7.18474681
H       -0.13665080      -2.90935117      -2.60508495
H       -1.52991379      -4.36011033      -3.96582759
H       -3.63344320      -0.90936396      -1.10866497
H       -5.89282696      -4.54111223      -2.91096437
H       -7.39465098      -5.72843415      -4.39684797
H       -4.45367419      -5.69150165      -7.49974483
C       -1.79103797       1.79103797       1.79103797
C       -2.72071065       2.64306180       1.21095723
C       -3.54504118       3.43873354       2.02368276
C       -3.44122563       3.43671300       3.43134429
C       -2.48976859       2.53925412       3.97865484
C       -1.68355201       1.71872808       3.17462398
O       -2.42236394       2.31742589       5.33184268
C       -1.39238664       3.06243978       5.96608449
F       -1.66942580       3.11942313       7.28930250
F       -0.20302522       2.43978214       5.80873818
F       -1.30644515       4.32711954       5.49447587
C       -4.30038040       4.34439015       4.26938076
C       -4.79863462       3.89389692       5.50997308
C       -5.50491303       4.72694571       6.38298480
C       -5.78182057       6.03162640       6.00781903
C       -5.36552122       6.50870496       4.77222649
C       -4.64056821       5.67647456       3.89491290
O       -4.17253782       6.15251792       2.69277093
C       -5.02605608       7.05418993       1.99495259
F       -4.65251875       7.08089191       0.69673882
F       -6.31561654       6.66284304       2.04804960
F       -4.91066255       8.30295266       2.49229419
Br      -6.72501350       7.17016747       7.18580063
H       -2.82847316       2.69303045       0.12958331
H       -4.28020076       4.05568321       1.51996774
H       -0.99197252       1.02236453       3.63713509
H       -4.63674989       2.86992662       5.83822706
H       -5.82490035       4.34556208       7.34947067
H       -5.59395229       7.53699927       4.51396911
C        1.79103797      -1.79103797       1.79103797
C        3.13781250      -1.94472438       1.49219281
C        3.95212254      -2.73982185       2.31551308
C        3.44206813      -3.43282643       3.43438836
C        2.06566321      -3.23256704       3.70944731
C        1.25204522      -2.41551559       2.90934326
O        1.49856657      -3.70669482       4.86637112
C        0.80508760      -4.93290578       4.68291753
F        0.66401608      -5.52058190       5.89355344
F       -0.42729972      -4.69986815       4.17897711
F        1.47164098      -5.78508901       3.87131058
C        4.33043959      -4.32226101       4.26145072
C        4.15843239      -4.38372688       5.66034535
C        4.87435676      -5.27370780       6.46677898
C        5.83164766      -6.09547503       5.89414331
C        6.08263806      -6.03378116       4.53003346
C        5.35290765      -5.14806315       3.71098486
O        5.55046363      -5.11682324       2.35053981
C        6.89287536      -5.27906815       1.90325510
F        6.98586268      -4.80156631       0.64272050
F        7.76173646      -4.59206926       2.67270345
F        7.23632336      -6.58360552       1.88598053
Br       6.79635821      -7.31131051       6.97331288
H        3.57568565      -1.44408235       0.63131892
H        5.00386346      -2.79303790       2.05895035
H        0.21139157      -2.26393411       3.17614645
H        3.44292233      -3.73804108       6.16394015
H        4.66948122      -5.31685295       7.53359893
H        6.83432996      -6.69604621       4.11454449
C       -0.00445707       0.01189536      -1.78238275
H       -0.66409135       0.67374010      -2.43557963
H        0.65740317      -0.63156657      -2.45157240
C       -0.90989263      -0.90692880      -0.91072765
C        0.90977584       0.90977584      -0.90977584
C       -0.00465871       1.77757030       0.00794375
H       -0.66225468       2.44313916      -0.64384735
H        0.64322798       2.43503045       0.67728295
C       -1.78241447       0.00034974      -0.00472694
H       -2.45427497      -0.65498947       0.64260836
H       -2.43311707       0.67328779      -0.65473579
C       -0.91132561       0.90220522       0.91563759
C       -0.01476271      -0.02253852       1.78660255
H       -0.67934791      -0.69751639       2.42135241
H        0.63392994       0.61504881       2.47327442
C        0.01484550      -1.77751727      -0.01636693
H        0.67870853      -2.42144646      -0.68295456
H       -0.62264859      -2.45592969       0.64226336
C        1.78714474       0.01002794       0.00389507
H        2.44202412       0.67113390       0.66197326
H        2.45385902      -0.65136977      -0.64189061
C        0.91606151      -0.90478549       0.90901405
