97
Properties=species:S:1:pos:R:3 pbc="F F F"
C        0.00000000       0.00000000       0.00000000
C        0.91746904       0.91746904      -0.91746904
C        2.30157050       0.28681250      -1.03325370
C        3.29308771       1.05048325      -1.95583123
C        3.53701433       2.46560957      -1.38882829
C        4.63392342       0.26416814      -1.98457833
C        5.71642953       0.87406174      -2.86977261
Br       7.27467011      -0.30124491      -2.88174133
C        2.71118410       1.15613447      -3.38329705
O        2.49408952       2.25049297      -3.90723736
C        2.40670278      -0.11321133      -4.14543803
H        0.93682397       1.89501644      -0.43170711
H        0.40476896       0.98969578      -1.87921680
H        2.19634377      -0.74799403      -1.38529380
H        2.74005923       0.20831823      -0.02836738
H        2.61625641       3.05744902      -1.35936871
H        4.24056977       3.03582025      -2.00407943
H        3.93999139       2.41901611      -0.37133210
H        4.44480736      -0.76848841      -2.30646562
H        5.02118664       0.18258989      -0.95919227
H        6.07447539       1.83599537      -2.49705469
H        5.40537032       0.97163553      -3.91233385
H        3.32041761      -0.68553326      -4.31429148
H        1.98447382       0.14708781      -5.12086239
H        1.67085464      -0.71478161      -3.60947274
C       -0.91746904      -0.91746904      -0.91746904
C       -1.74819410      -0.03228082      -1.84116178
C       -2.65497134      -0.80157675      -2.84285410
C       -3.68112880      -1.64950922      -2.06081417
C       -3.40353465       0.24100592      -3.72014116
C       -4.32642465      -0.35546733      -4.77837191
Br      -5.08194703       1.08455784      -5.85777735
C       -1.79293802      -1.72233098      -3.73534660
O       -1.96119783      -2.94331816      -3.74730385
C       -0.72547590      -1.10435690      -4.60909666
H       -1.52969187      -1.50411405      -0.22974160
H       -0.23635611      -1.57458384      -1.46274159
H       -1.07755026       0.63843178      -2.39452506
H       -2.37723725       0.62792183      -1.22742943
H       -3.19393952      -2.40430870      -1.43482592
H       -4.34935714      -2.20085906      -2.73025326
H       -4.29898703      -1.02070006      -1.41065250
H       -2.67276000       0.89889582      -4.20892039
H       -3.99444997       0.89801664      -3.06653546
H       -5.18080019      -0.88053354      -4.34619173
H       -3.80146098      -1.01110827      -5.47677045
H       -1.17433045      -0.43234953      -5.34249584
H       -0.20276240      -1.89802017      -5.15164146
H        0.00780537      -0.57303468      -4.00031646
C       -0.91746904       0.91746904       0.91746904
C       -0.03161736       1.76352717       1.82649217
C       -0.79708291       2.75882846       2.74349082
C       -1.72345044       1.97227540       3.69572636
C        0.24756041       3.55501522       3.57521508
C       -0.34370568       4.59824781       4.51831040
Br       1.10601825       5.57791786       5.38326692
C       -1.63858600       3.72836581       1.88366379
O       -2.86426703       3.78814644       1.99940638
C       -0.93590282       4.61861352       0.88441313
H       -1.56030234       0.23112601       1.47211918
H       -1.51900871       1.52075137       0.23392146
H        0.69195382       2.31449673       1.21110063
H        0.57239802       1.09402800       2.45511487
H       -2.48181822       1.40261922       3.14863670
H       -2.27497627       2.63643645       4.36905674
H       -1.15183557       1.26831812       4.31018591
H        0.95825907       4.04470242       2.89634122
H        0.84838918       2.84751121       4.16384677
H       -0.92497495       4.15371601       5.32883450
H       -0.94420991       5.34754723       3.99758256
H       -0.25379655       5.30086339       1.39451588
H       -1.68099191       5.21849648       0.35293564
H       -0.39880957       4.01870620       0.14803000
C        0.91746904      -0.91746904       0.91746904
C        0.09461660      -2.09382331       1.43319679
C        0.88425886      -3.11341348       2.30172985
C        1.41960048      -2.40636870       3.56548301
C       -0.08769457      -4.25359018       2.71677428
C        0.54128740      -5.35672917       3.56224732
Br      -0.78300916      -6.75392450       3.88425119
C        2.06515158      -3.69375321       1.49171081
O        3.23047228      -3.55336265       1.86798492
C        1.77583992      -4.44860429       0.21448526
H        1.27663577      -0.26840779       1.71850396
H        1.75394683      -1.23085843       0.28887629
H       -0.36125927      -2.61437070       0.58053211
H       -0.74913939      -1.70513010       2.02075414
H        2.11672994      -1.59942021       3.31692399
H        1.97429734      -3.09315504       4.21301707
H        0.60166525      -1.97559182       4.15308253
H       -0.53348588      -4.69882484       1.81744561
H       -0.92967314      -3.81892623       3.27371570
H        0.84937196      -5.00802056       4.55013295
H        1.37998791      -5.84676404       3.06258774
H        1.18383506      -5.34104357       0.42429720
H        2.72117151      -4.76683634      -0.23558383
H        1.26095358      -3.80645402      -0.50186184
