105
Properties=species:S:1:pos:R:3 pbc="F F F"
C        0.00000000       0.00000000       0.00000000
C        0.91746904       0.91746904      -0.91746904
C        2.30157050       0.28681250      -1.03325370
C        3.29308771       1.05048325      -1.95583123
C        3.53701433       2.46560957      -1.38882829
C        4.63392342       0.26416814      -1.98457833
C        5.71642953       0.87406174      -2.86977261
C        2.71118410       1.15613447      -3.38329705
O        2.49408952       2.25049297      -3.90723736
C        2.40670278      -0.11321133      -4.14543803
H        0.93682397       1.89501644      -0.43170711
H        0.40476896       0.98969578      -1.87921680
H        2.19634377      -0.74799403      -1.38529380
H        2.74005923       0.20831823      -0.02836738
H        2.61625641       3.05744902      -1.35936871
H        4.24056977       3.03582025      -2.00407943
H        3.93999139       2.41901611      -0.37133210
H        4.44480736      -0.76848841      -2.30646562
H        5.02118664       0.18258989      -0.95919227
H        6.07447539       1.83599537      -2.49705469
H        5.40537032       0.97163553      -3.91233385
H        3.32041761      -0.68553326      -4.31429148
H        1.98447382       0.14708781      -5.12086239
H        1.67085464      -0.71478161      -3.60947274
C        6.86605708       0.00695244      -2.87860281
C        7.82887014      -0.71925160      -2.88599809
Br       9.38565744      -1.89346211      -2.89795565
C       -0.91746904      -0.91746904      -0.91746904
C       -1.25305996      -2.20209588      -0.16648087
C       -2.19962525      -3.17478420      -0.92499274
C       -1.52292511      -3.63406316      -2.23446392
C       -2.46012540      -4.40785087      -0.01469361
C       -3.39571073      -5.45682721      -0.60772595
C       -3.53367090      -2.46641808      -1.25052663
O       -3.91552137      -2.32267580      -2.41362267
C       -4.38152932      -1.94397180      -0.11342836
H       -0.34011185      -1.09690051      -1.82653516
H       -1.80248501      -0.32109277      -1.15010376
H       -1.69434280      -1.94490659       0.80560585
H       -0.31762950      -2.72880569       0.06969035
H       -1.32915519      -2.79418328      -2.90973568
H       -2.15277485      -4.33147879      -2.79621581
H       -0.56775832      -4.13057732      -2.03200396
H       -2.86187368      -4.07106366       0.95015277
H       -1.49893814      -4.88566934       0.22163868
H       -2.97008196      -5.95772183      -1.47972167
H       -4.38088849      -5.05438967      -0.85406153
H       -4.71028071      -2.76492164       0.52602652
H       -5.27118795      -1.45695064      -0.52428543
H       -3.82956760      -1.20301648       0.46703832
C       -3.62305948      -6.49378092       0.36522808
C       -3.81346406      -7.36222965       1.18007708
Br      -4.12133217      -8.76643781       2.49761899
C       -0.91746904       0.91746904       0.91746904
C       -1.48280055       2.05964377       0.07919238
C       -2.45258220       3.00946848       0.83735151
C       -1.69979211       3.69192534       1.99973474
C       -2.95463760       4.08969016      -0.16165787
C       -3.94039542       5.09616575       0.42370272
C       -3.64971466       2.20677797       1.39412297
O       -3.88515932       2.16342611       2.60323441
C       -4.54546582       1.46433674       0.42912691
H       -0.27198426       1.26513399       1.72642927
H       -1.69472975       0.26215335       1.31679844
H       -1.99139274       1.64221543      -0.79996463
H       -0.64781199       2.65115760      -0.32222474
H       -1.33580272       2.96451429       2.73275714
H       -2.34500890       4.38030840       2.55515215
H       -0.83810528       4.25978103       1.63245329
H       -3.41390007       3.59878590      -1.02990140
H       -2.08838711       4.63567837      -0.56109669
H       -3.48713679       5.74047938       1.17990928
H       -4.83828601       4.62321693       0.82783675
H       -5.03659368       2.16293493      -0.25035279
H       -5.32137033       0.93781015       0.99324354
H       -3.97391131       0.72241695      -0.13078250
C       -4.39293141       5.97885294      -0.62017203
C       -4.77193030       6.71810347      -1.49441713
Br      -5.38473946       7.91340905      -2.90799752
C        0.91746904      -0.91746904       0.91746904
C        1.53748842      -0.06447665       2.01967163
C        2.41822549      -0.84659641       3.03458029
C        3.61283570      -1.48496193       2.29365456
C        2.94352785       0.15866839       4.09781043
C        3.81401639      -0.45770952       5.18853798
C        1.58128897      -1.95070689       3.71861975
O        1.88921213      -3.14031540       3.62229232
C        0.36321773      -1.55451036       4.52120138
H        1.66280711      -1.35217864       0.24856178
H        0.26468389      -1.70160343       1.30739422
H        0.73867716       0.46287669       2.55784307
H        2.14565676       0.72527346       1.55636153
H        3.28564378      -2.20808265       1.53934771
H        4.26724819      -2.03790491       2.97531635
H        4.21744922      -0.72311993       1.78977045
H        2.09359654       0.67462651       4.56381454
H        3.51859060       0.94594409       3.59032229
H        4.76453099      -0.83618068       4.80681378
H        3.29923588      -1.24197324       5.74813058
H        0.65100130      -0.92974772       5.36842681
H       -0.11685644      -2.45659297       4.91268749
H       -0.35944551      -1.03526215       3.88972912
C        4.15668452       0.55660135       6.15152916
C        4.44366908       1.40608671       6.95803427
Br       4.90769884       2.77963268       8.26208482
