138
Properties=species:S:1:pos:R:3 pbc="F F F"
C        6.13074638       1.21050100      -1.82056712
C        5.40170553       2.39949896      -2.39666576
C        4.07638827       2.63190818      -2.30407725
C        3.11634396       1.82469257      -1.57962117
C        1.78808435       1.78808435      -1.78808435
C        1.01652894       2.50411647      -2.85653658
C        6.26333464       3.33044975      -3.14350023
C        6.43270790       4.59458575      -2.70461676
C        7.31424780       5.58686322      -3.29180118
C        7.43615060       6.87171579      -2.91130877
Br       8.70984696       7.97735463      -3.74919708
C        6.63783817       7.57828380      -1.85615781
C        6.90157614       2.74852926      -4.37813237
H        6.47552785       0.54925415      -2.62320579
H        5.51662938       0.60433796      -1.15082843
H        7.00311399       1.53689208      -1.24430826
H        3.67413449       3.51076896      -2.80660204
H        3.51850941       1.21126661      -0.77599934
H        1.65408926       3.07478509      -3.53642171
H        0.30018837       3.20272440      -2.41179206
H        0.46302332       1.78701712      -3.47355521
H        5.90963706       4.89677187      -1.79840901
H        7.96821330       5.23455517      -4.08686176
H        5.67342348       7.09685443      -1.67093829
H        6.41048124       8.60884381      -2.15149331
H        7.19578391       7.60719437      -0.91458632
H        6.23390629       2.02572098      -4.86107201
H        7.83344973       2.23401897      -4.11814372
H        7.12289593       3.50751956      -5.13255776
C       -0.17594936      -5.48338301      -3.50248213
C       -1.46596491      -4.81755320      -3.91435215
C       -1.91964721      -3.63069601      -3.46203048
C       -1.22653338      -2.74205009      -2.55207424
C       -1.78808435      -1.78808435      -1.78808435
C       -3.24956535      -1.48298830      -1.64462835
C       -2.27003887      -5.59979003      -4.86745572
C       -2.50129192      -5.12284410      -6.10777439
C       -3.20145381      -5.82159474      -7.16986364
C       -3.50493622      -5.32941210      -8.38482684
Br      -4.34266493      -6.43546559      -9.65826815
C       -3.25852916      -3.93478227      -8.87896835
C       -2.77360044      -6.91726425      -4.33737307
H       -0.38239146      -6.37111470      -2.89448163
H        0.47898216      -4.83874948      -2.91202847
H        0.39446236      -5.79458262      -4.38419407
H       -2.89260558      -3.28732312      -3.81157678
H       -0.14480321      -2.85117749      -2.50979466
H       -3.88750266      -2.16264153      -2.21515187
H       -3.46564488      -0.46470900      -1.98435095
H       -3.55688883      -1.57050801      -0.59619881
H       -2.08561697      -4.15057677      -6.36862420
H       -3.46167719      -6.85884745      -6.96910560
H       -3.16563240      -3.21348911      -8.06209470
H       -4.08676230      -3.58082073      -9.50323533
H       -2.34122595      -3.90064142      -9.47569723
H       -3.00540298      -6.84693538      -3.26836093
H       -2.01555749      -7.69674901      -4.47330591
H       -3.69569123      -7.24064302      -4.82663900
C       -5.92847559       0.61873022       2.61460868
C       -5.33103879       1.97678356       2.89004791
C       -4.08830426       2.37487874       2.54919069
C       -3.12023772       1.60275679       1.79766319
C       -1.78808435       1.78808435       1.78808435
C       -1.00217496       2.77124925       2.60375777
C       -6.22020413       2.88723067       3.62984983
C       -6.65501524       4.02550531       3.05138986
C       -7.59615134       4.96679375       3.62996711
C       -7.97980727       6.14156582       3.09780208
Br      -9.28718371       7.17957186       3.96964310
C       -7.46489648       6.77030873       1.83707457
C       -6.57407139       2.43219004       5.02197633
H       -6.04355298       0.05653102       3.54790378
H       -5.32348857       0.00323930       1.94506792
H       -6.91487395       0.72001043       2.14942994
H       -3.76930608       3.37208522       2.85011419
H       -3.52511349       0.81523894       1.16542293
H       -1.62279097       3.35045597       3.29204911
H       -0.48013616       3.48099192       1.95357674
H       -0.25715789       2.25035995       3.21607781
H       -6.32143543       4.24520067       2.03818183
H       -8.06492395       4.66148959       4.56321669
H       -6.47025365       6.40548203       1.56548052
H       -7.37072246       7.85698011       1.94311580
H       -8.14681434       6.56534517       1.00540509
H       -5.73551213       1.89975222       5.48543493
H       -7.43591006       1.75607328       4.99362908
H       -6.80876042       3.26605173       5.68816110
C        0.45001547      -5.80772481       2.90407421
C        1.60254879      -5.06319535       3.53212612
C        1.95869055      -3.79043436       3.26324879
C        1.26537356      -2.87876929       2.37651485
C        1.78808435      -1.78808435       1.78808435
C        3.21056648      -1.31659854       1.85001698
C        2.38842127      -5.86320143       4.48566193
C        2.43064681      -5.51355964       5.78770395
C        3.09266594      -6.25482000       6.84542626
C        3.20709147      -5.87957569       8.13250800
Br       4.03060350      -7.03343671       9.37235847
C        2.74817141      -4.58621403       8.73789434
C        3.09600070      -7.04916707       3.88306999
H        0.82190396      -6.59133777       2.23474606
H       -0.21047269      -5.17053284       2.31173563
H       -0.16926211      -6.27841302       3.67516342
H        2.84251967      -3.39029091       3.75869491
H        0.21438643      -3.09507756       2.19631136
H        3.86047519      -1.98781664       2.41700422
H        3.26875216      -0.32823412       2.31771854
H        3.63434319      -1.24768803       0.84156442
H        1.87863728      -4.62766321       6.09851745
H        3.49248732      -7.22825775       6.56888516
H        2.65746471      -3.78776153       7.99598997
H        3.45901111      -4.22305365       9.48875361
H        1.77568837      -4.71881080       9.22306542
H        3.42882610      -6.82988505       2.86198813
H        2.42466630      -7.91442853       3.84651759
H        3.99321602      -7.32919891       4.44055831
C       -0.00445707       0.01189536      -1.78238275
H       -0.66409135       0.67374010      -2.43557963
H        0.65740317      -0.63156657      -2.45157240
C       -0.90989263      -0.90692880      -0.91072765
C        0.90977584       0.90977584      -0.90977584
C       -0.00465871       1.77757030       0.00794375
H       -0.66225468       2.44313916      -0.64384735
H        0.64322798       2.43503045       0.67728295
C       -1.78241447       0.00034974      -0.00472694
H       -2.45427497      -0.65498947       0.64260836
H       -2.43311707       0.67328779      -0.65473579
C       -0.91132561       0.90220522       0.91563759
C       -0.01476271      -0.02253852       1.78660255
H       -0.67934791      -0.69751639       2.42135241
H        0.63392994       0.61504881       2.47327442
C        0.01484550      -1.77751727      -0.01636693
H        0.67870853      -2.42144646      -0.68295456
H       -0.62264859      -2.45592969       0.64226336
C        1.78714474       0.01002794       0.00389507
H        2.44202412       0.67113390       0.66197326
H        2.45385902      -0.65136977      -0.64189061
C        0.91606151      -0.90478549       0.90901405
