133
Properties=species:S:1:pos:R:3 pbc="F F F"
C        0.00000000       0.00000000       0.00000000
C        4.82459220       2.14531216       0.68137452
C        4.22821825       2.53630148      -0.64546674
C        3.02766902       2.13763209      -1.11157066
C        2.07177513       1.29796791      -0.41632121
C        0.87936655       0.87936655      -0.87936655
C        0.25558309       1.17031824      -2.21238001
C        5.01780525       3.39189801      -1.47919699
C        5.70987178       4.10928325      -2.15098530
C        6.62705735       5.02356476      -2.96832834
C        7.37554571       5.73649218      -3.55823877
C        8.25976319       6.57871145      -4.25512747
C        8.14384237       7.91273564      -4.09738822
C        8.96208327       8.91128519      -4.75971567
C        8.92538691      10.24264405      -4.56918452
Br      10.07563670      11.35591850      -5.56588115
C        8.05794001      11.01023467      -3.61645617
C        9.30532416       5.92514762      -5.12178227
H        5.90835765       2.00716842       0.59052935
H        4.42846749       1.20334607       1.06923130
H        4.64421059       2.93160265       1.42181658
H        2.73150923       2.49007863      -2.09787974
H        2.35046265       0.98590326       0.58798976
H        0.87560675       1.80107722      -2.85306271
H       -0.70093582       1.68856362      -2.08196342
H        0.07190813       0.23970124      -2.76054480
H        7.36355691       8.28144114      -3.43457454
H        9.66891184       8.53197070      -5.49627361
H        7.43327489      10.37007243      -2.98952664
H        7.38882040      11.68167356      -4.16541348
H        8.67257671      11.61344388      -2.93891341
H        9.38155907       4.85154885      -4.91399392
H       10.29829090       6.34976039      -4.94011118
H        9.05249371       6.04118961      -6.18076300
C       -3.81052015       1.07972278      -3.55773246
C       -3.61472154      -0.40447268      -3.39079227
C       -2.71290587      -0.98792525      -2.57604064
C       -1.79547076      -0.30778319      -1.68281031
C       -0.87936655      -0.87936655      -0.87936655
C       -0.58224761      -2.34070052      -0.71533320
C       -4.45252629      -1.25714385      -4.17923012
C       -5.17253498      -1.93990841      -4.85769694
C       -6.11245645      -2.76618258      -5.74031142
C       -6.86919406      -3.35933348      -6.44174912
C       -7.76316550      -4.06005373      -7.27038289
C       -8.96319249      -4.41924572      -6.77152802
C       -9.98334525      -5.16088828      -7.48885060
C      -11.21731575      -5.46950108      -7.05039866
Br     -12.37326566      -6.46843683      -8.15573387
C      -11.84348375      -5.10349523      -5.73765186
C       -7.32449425      -4.34367174      -8.68408806
H       -4.04635292       1.32196292      -4.60060672
H       -2.92089608       1.66143620      -3.30312237
H       -4.64259744       1.42245026      -2.93384949
H       -2.67503890      -2.07569704      -2.56873165
H       -1.86808381       0.77747804      -1.65777038
H       -1.20669049      -2.98311917      -1.33993702
H       -0.74365273      -2.64942737       0.32348888
H        0.45968695      -2.55172337      -0.98011774
H       -9.18747318      -4.15104618      -5.74105323
H       -9.70481242      -5.51037609      -8.48196763
H      -11.20544211      -4.47131114      -5.11612072
H      -12.07194432      -6.00504041      -5.15892271
H      -12.77592091      -4.55079100      -5.89822210
H       -6.43769225      -3.75758278      -8.95182680
H       -8.10403768      -4.07816360      -9.40596119
H       -7.07067281      -5.40226319      -8.80151033
C        0.66396150       4.84261176       2.10987957
C       -0.65646713       4.24027611       2.51324324
C       -1.11735874       3.03421337       2.12529965
C       -0.42135300       2.07739802       1.28731324
C       -0.87936655       0.87936655       0.87936655
C       -2.20643182       0.24893713       1.18291238
C       -1.48977217       5.03000608       3.36912200
C       -2.16139892       5.72236612       4.08637529
C       -2.97876472       6.64017334       5.00001239
C       -3.56890981       7.38944927       5.71191758
C       -4.26607564       8.27459717       6.55292931
C       -4.09903810       8.16830463       7.88662350
C       -4.76021550       8.98870954       8.88415908
C       -4.56091595       8.96183131      10.21446823
Br      -5.55785610      10.11282730      11.32675295
C       -3.59770391       8.10548632      10.98144061
C       -5.14363612       9.31033702       5.89828091
H        0.56523783       5.92485788       1.96537667
H        1.04831756       4.44291037       1.16798945
H        1.41058065       4.67206273       2.89251459
H       -2.09945452       2.73401481       2.48599826
H        0.57911573       2.36050118       0.96699071
H       -2.84704481       0.86889759       1.81380429
H       -2.06652182      -0.70336017       1.70642957
H       -2.75935724       0.05574626       0.25705067
H       -3.42884987       7.39468296       8.25603976
H       -5.50373879       9.68833587       8.50508149
H       -2.97087388       7.48073568      10.34126440
H       -4.13801238       7.43720783      11.66068724
H       -2.92028796       8.72833735      11.57630869
H       -4.94323462       9.38097096       4.82289625
H       -4.96565912      10.30716896       6.31533438
H       -6.20019657       9.05147379       6.02277597
C        4.39855440      -2.84367687      -0.95370143
C        3.94487143      -2.98988811       0.47522695
C        2.87436983      -2.37997342       1.02252852
C        1.93990455      -1.50742298       0.33873673
C        0.87936655      -0.87936655       0.87936655
C        0.41144964      -0.92273481       2.30409688
C        4.73258032      -3.83915784       1.31716210
C        5.41889465      -4.55854004       1.99270564
C        6.32292392      -5.48473877       2.81128776
C        7.05419570      -6.21709987       3.39898109
C        7.91807394      -7.08227609       4.09325209
C        7.62412176      -8.39757437       4.13227010
C        8.39984279      -9.41171272       4.82152861
C        8.17970273     -10.73900110       4.81851166
Br       9.31358357     -11.87113499       5.81271780
C        7.10634237     -11.49000779       4.08828069
C        9.14144169      -6.47775147       4.73306089
H        5.49331513      -2.84354672      -1.01186513
H        4.06843995      -1.90964892      -1.41550662
H        4.02751415      -3.68075099      -1.55426847
H        2.67452691      -2.56935337       2.07558732
H        2.11532559      -1.35754233      -0.72449177
H        1.03299073      -1.55086230       2.94589366
H       -0.60868369      -1.31866613       2.35960879
H        0.41554022       0.08267895       2.73929290
H        6.72312436      -8.73353549       3.62291275
H        9.23981743      -9.04661548       5.41072324
H        6.48321340     -10.85036804       3.45929252
H        6.44256947     -11.99472625       4.79861173
H        7.54759821     -12.24702417       3.43031162
H        9.31596623      -5.45671128       4.37442432
H       10.04313260      -7.05129975       4.49373012
H        9.02215211      -6.43181041       5.82048380
