90
Properties=species:S:1:pos:R:3 pbc="F F F"
C        1.76958785       1.76958785      -1.76958785
C        1.61119778       1.91295107      -3.28465382
C        1.77354085       3.43575809      -3.18683790
C        1.92721272       3.27814871      -1.60605793
C        3.50306864       3.10348324      -1.79002472
C        3.27984711       1.59233469      -1.93670851
C        3.13091477       1.74614238      -3.46092154
C        3.33537726       3.25147729      -3.35582049
H        0.86762026       1.41109757      -3.89192393
H        1.15494909       4.17095309      -3.68399272
H        1.45108275       3.90825907      -0.86659274
H        4.25949284       3.57453132      -1.17655833
H        3.88334614       0.83179403      -1.45628249
H        3.59369008       1.09173013      -4.18953034
C        4.17375544       4.06133587      -4.20130918
C        4.87589716       4.73959243      -4.90940595
Br       6.01120094       5.83627592      -6.05433855
C       -1.76958785      -1.76958785      -1.76958785
C       -3.05505480      -2.45377056      -1.29997731
C       -3.78357759      -2.03014035      -2.58241889
C       -2.44159149      -1.31005306      -3.05977481
C       -1.97410468      -2.66988369      -3.75258823
C       -1.30902550      -3.07083929      -2.42902553
C       -2.60426793      -3.76398620      -1.96972456
C       -3.30381088      -3.37398571      -3.26487846
H       -3.47594448      -2.39093533      -0.30376194
H       -4.77516586      -1.60069953      -2.63402951
H       -2.38640307      -0.32835247      -3.51117902
H       -1.52703729      -2.74897965      -4.73456555
H       -0.32081662      -3.50637893      -2.34422712
H       -2.64185412      -4.73727472      -1.49582172
C       -4.13158177      -4.22557848      -4.07924024
C       -4.82483989      -4.93878741      -4.76126824
Br      -5.94577964      -6.09198595      -5.86404982
C       -1.76958785       1.76958785       1.76958785
C       -3.04869175       2.46338742       1.29672350
C       -3.78656196       2.03676240       2.57281248
C       -2.45117957       1.30670616       3.05353364
C       -1.98007964       2.66013598       3.75636098
C       -1.30554901       3.06466085       2.43868045
C       -2.59443576       3.76742173       1.97612119
C       -3.30321299       3.37419653       3.26526554
H       -3.46443402       2.40831709       0.29789064
H       -4.78075289       1.61250519       2.61663681
H       -2.40384425       0.32226280       3.49982751
H       -1.53799323       2.73140045       4.74118881
H       -0.31452150       3.49521679       2.36168438
H       -2.62409166       4.74347952       1.50737938
C       -4.13077985       4.22586191       4.07975873
C       -4.82386710       4.93913167       4.76189677
Br      -5.94453057       6.09242854       5.86485630
C        1.76958785      -1.76958785       1.76958785
C        1.31423296      -2.41416748       3.08040223
C        1.96452896      -3.74667709       2.68493078
C        2.42645137      -3.06946505       1.31550295
C        3.77858909      -2.59765167       2.02033584
C        3.06449742      -1.30545877       2.43893412
C        2.61898272      -1.96030654       3.75868942
C        3.30425548      -3.26459390       3.37382567
H        0.33035638      -2.31705432       3.52323105
H        1.50975094      -4.72401546       2.77612849
H        2.35921496      -3.52858041       0.33813918
H        4.76606679      -2.66146724       1.58304846
H        3.49351612      -0.31358245       2.36432410
H        2.66884331      -1.47854764       4.72755961
C        4.13201685      -4.07896178       4.22542186
C        4.82526699      -4.76099488       4.93863367
Br       5.94619385      -5.86378471       6.09183685
C       -0.00445707       0.01189536      -1.78238275
H       -0.66409135       0.67374010      -2.43557963
H        0.65740317      -0.63156657      -2.45157240
C       -0.90989263      -0.90692880      -0.91072765
C        0.90977584       0.90977584      -0.90977584
C       -0.00465871       1.77757030       0.00794375
H       -0.66225468       2.44313916      -0.64384735
H        0.64322798       2.43503045       0.67728295
C       -1.78241447       0.00034974      -0.00472694
H       -2.45427497      -0.65498947       0.64260836
H       -2.43311707       0.67328779      -0.65473579
C       -0.91132561       0.90220522       0.91563759
C       -0.01476271      -0.02253852       1.78660255
H       -0.67934791      -0.69751639       2.42135241
H        0.63392994       0.61504881       2.47327442
C        0.01484550      -1.77751727      -0.01636693
H        0.67870853      -2.42144646      -0.68295456
H       -0.62264859      -2.45592969       0.64226336
C        1.78714474       0.01002794       0.00389507
H        2.44202412       0.67113390       0.66197326
H        2.45385902      -0.65136977      -0.64189061
C        0.91606151      -0.90478549       0.90901405
