61
Properties=species:S:1:pos:R:3 pbc="F F F"
C        0.00000000       0.00000000       0.00000000
C        0.85968382       0.85968382      -0.85968382
C        0.70129375       1.00304705      -2.37474979
C        0.86363682       2.52585407      -2.27693387
C        1.01730870       2.36824469      -0.69615391
C        2.59316462       2.19357921      -0.88012070
C        2.36994308       0.68243067      -1.02680449
C        2.22101075       0.83623835      -2.55101751
C        2.42547324       2.34157327      -2.44591647
Br       3.50009675       3.37964069      -3.52965415
H       -0.04228377       0.50119354      -2.98201990
H        0.24504506       3.26104906      -2.77408869
H        0.54117873       2.99835504       0.04331129
H        3.34958881       2.66462730      -0.26665430
H        2.97344212      -0.07810999      -0.54637847
H        2.68378606       0.18182611      -3.27962632
C       -0.85968382      -0.85968382      -0.85968382
C       -1.53638129      -2.15004689      -0.39266241
C       -2.84943053      -1.74260234      -1.07439189
C       -2.13891486      -0.39435542      -1.54843702
C       -1.65580231      -1.13234339      -2.87871883
C       -0.38463388      -1.56100565      -2.13353871
C       -1.07158281      -2.86030220      -1.67638160
C       -2.35598259      -2.46461481      -2.39236558
Br      -3.40039757      -3.55648091      -3.45251310
H       -1.46521340      -2.57638700       0.60067072
H       -3.83633462      -1.80775506      -0.63609314
H       -2.58111631       0.59221169      -1.50731787
H       -1.69372056      -0.71221046      -3.87493940
H        0.61603305      -1.51222389      -2.54551975
H       -0.60690293      -3.83846792      -1.69986763
C       -0.85968382       0.85968382       0.85968382
C       -2.15742794       0.39671082       1.52495183
C       -1.75414458       1.06725206       2.84502812
C       -0.39825312       1.53709017       2.14636400
C       -1.12444563       2.87525508       1.66716382
C       -1.54962972       2.14113296       0.38841555
C       -2.85630989       1.68801570       1.06394103
C       -2.46437460       2.39307216       2.35551622
Br      -3.55613681       3.45352832       3.39972645
H       -2.58971918      -0.59334041       1.44455091
H       -1.82856612       0.62300511       3.82861159
H        0.58512359       1.48667811       2.59466796
H       -0.69812588       3.86844942       1.71429512
H       -1.49165918       2.55925916      -0.60920774
H       -3.83125323       1.72088619       0.59309906
C        0.85968382      -0.85968382       0.85968382
C        0.40512770      -1.50215107       2.17181182
C        1.05335704      -2.83590954       1.77715818
C        1.51444954      -2.16088783       0.40636992
C        2.86799259      -1.68985068       1.10902127
C        2.15594715      -0.39630489       1.52692619
C        1.71122964      -1.04904136       2.84799562
C        2.39448210      -2.35460679       2.46387409
Br       3.45555418      -3.39841768       3.55541971
H       -0.57810153      -1.40333154       2.61569967
H        0.59752074      -3.81259335       1.87006873
H        1.44549505      -2.62109017      -0.57036273
H        3.85486936      -1.75537035       0.67063070
H        2.58606139       0.59496749       1.45061670
H        1.76282523      -0.56618488       3.81622837
