69
Properties=species:S:1:pos:R:3 pbc="F F F"
C        0.00000000       0.00000000       0.00000000
C        1.22903817       4.65360186       2.60361739
C        1.50988236       4.17341848       1.22010338
C        1.10138124       2.84909258       0.81657779
H        0.60692240       2.26846184       1.59293921
C        1.27541227       2.18492324      -0.45760739
H        1.80842145       2.74933817      -1.22043568
C        0.86226713       0.86226713      -0.86226713
C        1.15993328       0.36819480      -2.23739404
H        1.83393802       5.52725018       2.86849292
H        1.44967867       3.87320745       3.34000190
H        0.17382351       4.92897294       2.70296665
H        2.14631385       0.70606448      -2.57136463
H        0.41304678       0.74242127      -2.94435670
H        1.16020441      -0.72510514      -2.28695764
C        2.07667158       5.11886613       0.29356211
C        2.55135755       5.91067853      -0.48241621
Br       3.31888462       7.19097222      -1.73710751
C        2.54240271      -4.71862038      -1.10280497
C        1.25115415      -4.14043824      -1.57391337
C        0.79725467      -2.86961643      -1.06153428
H        1.45656391      -2.41331141      -0.32569753
C       -0.41114674      -2.13557555      -1.37122061
H       -1.09148181      -2.61237120      -2.07434229
C       -0.86226713      -0.86226713      -0.86226713
C       -2.16325501      -0.28944882      -1.31281829
H        2.62411964      -5.78680864      -1.33000627
H        2.64553119      -4.61083208      -0.01758332
H        3.38436184      -4.20523633      -1.57895530
H       -2.91763360      -1.07385035      -1.43225901
H       -2.04125344       0.21680019      -2.27537150
H       -2.56145027       0.43355574      -0.59416237
C        0.56344466      -4.83221327      -2.63320698
C       -0.01251204      -5.41157486      -3.52036538
Br      -0.94378531      -6.34835355      -4.95482549
C       -0.90761085       4.81267530      -2.44126352
C       -1.27123157       4.28628646      -1.09432057
C       -0.93906130       2.92863043      -0.73379569
H       -0.43558353       2.36036247      -1.51350099
C       -1.19909327       2.21851568       0.50033395
H       -1.74113535       2.77292806       1.26413190
C       -0.86226713       0.86226713       0.86226713
C       -1.24289839       0.32313995       2.19948377
H       -1.46155851       5.72341977      -2.69228300
H       -1.12827959       4.07563944      -3.22103481
H        0.16193944       5.04409218      -2.48232295
H       -2.22783179       0.69050099       2.50541017
H       -0.51325371       0.63228206       2.95428898
H       -1.29270155      -0.77014914       2.19950448
C       -1.83790798       5.21543071      -0.15136309
C       -2.31249946       5.99358902       0.63836380
Br      -3.07987376       7.25180519       1.91528539
C       -3.07018347      -3.60070925       2.74849685
C       -1.61304308      -3.28667741       2.78956313
C       -1.05924147      -2.30147711       1.89166040
H       -1.77854845      -1.84960029       1.21139318
C        0.30972996      -1.85121047       1.75700247
H        1.03654426      -2.33435318       2.40729786
C        0.86226713      -0.86226713       0.86226713
C        2.32234039      -0.55989193       0.88328980
H       -3.30352409      -4.54552192       3.25069744
H       -3.42138108      -3.68956028       1.71470502
H       -3.64365303      -2.80614021       3.23734261
H        2.90973244      -1.46965398       1.04435654
H        2.55215617       0.14265173       1.69032030
H        2.66157491      -0.12028799      -0.05980600
C       -0.83193473      -3.90392878       3.82998155
C       -0.17775649      -4.42087679       4.70133199
Br       0.87999439      -5.25673802       6.11023194
