69
Properties=species:S:1:pos:R:3 pbc="F F F"
C        0.00000000       0.00000000       0.00000000
C        0.86111942       0.86111942      -0.86111942
C        2.19849025       0.98381652      -0.81192668
C        2.87449825       1.88384592      -1.75034666
C        3.45714913       1.37886043      -2.84992777
C        2.83961980       3.33919971      -1.36458676
C        3.11284770       0.26270860       0.14256510
H        0.26917791       1.41674224      -1.58186994
H        3.43942349       0.31385889      -3.06006353
H        3.21214385       3.47547702      -0.34280501
H        1.81382362       3.72253130      -1.40920501
H        3.45218008       3.97196896      -2.01253291
H        2.57642840      -0.30950987       0.90425196
H        3.75439105       0.97563423       0.67300111
H        3.75602055      -0.43920149      -0.40028230
C        4.15810558       2.10362449      -3.87802169
C        4.74515661       2.71061439      -4.73905035
Br       5.69436847       3.69206572      -6.13126087
C       -0.86111942      -0.86111942      -0.86111942
C       -1.37561161      -2.06415586      -0.55446597
C       -2.20905652      -2.76299362      -1.53664068
C       -3.54652023      -2.71392582      -1.42549128
C       -1.44312570      -3.48972477      -2.61055580
C       -1.18037404      -2.79820868       0.74559152
H       -1.04891301      -0.39529514      -1.82358193
H       -4.02666637      -2.16641697      -0.62026258
H       -0.70163937      -4.16320675      -2.16557976
H       -0.91547986      -2.77627449      -3.25380558
H       -2.07982450      -4.10093772      -3.25591972
H       -0.46328328      -2.31146160       1.41207831
H       -0.80702502      -3.81220191       0.56220277
H       -2.12964792      -2.87524177       1.28778832
C       -4.51804691      -3.33027502      -2.29142983
C       -5.33170050      -3.84646748      -3.01665337
Br      -6.64730954      -4.68110703      -4.18927849
C       -0.86111942       0.86111942       0.86111942
C       -0.46354442       1.84510452       1.68558450
C       -1.46477461       2.58985139       2.45406482
C       -1.87340781       3.79306180       2.01946773
C       -1.94869322       1.89514258       3.69957047
C        0.95959775       2.28261749       1.90997146
H       -1.91041508       0.60449656       0.75287846
H       -1.47640370       4.22906173       1.10788048
H       -1.10154186       1.59968990       4.32919411
H       -2.51344538       0.99257315       3.43954140
H       -2.59978085       2.52014530       4.31675580
H        1.69180835       1.63752633       1.41694859
H        1.19940421       2.27703422       2.97939415
H        1.11183996       3.29914263       1.52979871
C       -2.84368009       4.66077541       2.63529627
C       -3.65628312       5.38748557       3.15105267
Br      -4.97019349       6.56251442       3.98498715
C        0.86111942      -0.86111942       0.86111942
C        0.74137503      -1.06951881       2.18333960
C        1.68750165      -1.96018662       2.86100257
C        1.32924445      -3.22610359       3.13058930
C        3.01575636      -1.33344894       3.19420097
C       -0.30656472      -0.46192639       3.07762953
H        1.64635486      -1.33840948       0.28302575
H        0.34968923      -3.60627377       2.85738292
H        2.87220471      -0.40290022       3.75532095
H        3.56900886      -1.09891938       2.27763169
H        3.65510750      -1.97665894       3.80491551
H       -0.92407972       0.28542419       2.57217048
H        0.16127790       0.03780242       3.93354867
H       -0.98003525      -1.23753299       3.45960363
C        2.12081962      -4.23817773       3.78075442
C        2.78376382      -5.08578982       4.32526771
Br       3.85568853      -6.45630688       5.20569965
