82
Properties=species:S:1:pos:R:3 pbc="F F F"
C        1.77102344       1.77102344      -1.77102344
C        3.10839427       1.89372054      -1.72183071
C        3.78440227       2.79374994      -2.66025069
C        4.36705316       2.28876445      -3.75983180
Br       5.26994176       3.22231917      -5.08409991
C        3.74952382       4.24910373      -2.27449078
C        4.02275172       1.17261262      -0.76733893
H        1.17908194       2.32664626      -2.49177397
H        4.34932752       1.22376291      -3.96996756
H        4.12204788       4.38538104      -1.25270903
H        2.72372764       4.63243533      -2.31910903
H        4.36208410       4.88187298      -2.92243694
H        3.48633243       0.60039415      -0.00565207
H        4.66429507       1.88553825      -0.23690291
H        4.66592458       0.47070254      -1.31018633
C       -1.77102344      -1.77102344      -1.77102344
C       -2.98891898      -2.25747810      -1.47754845
C       -3.68876646      -3.08901775      -2.46061868
C       -4.63888397      -2.54112404      -3.23564139
Br      -5.64903448      -3.38450142      -4.54282494
C       -3.24682784      -4.52824368      -2.49804682
C       -3.74188668      -2.02655014      -0.19426646
H       -1.29269416      -1.98241268      -2.72239533
H       -4.90217216      -1.49138157      -3.14950425
H       -3.29268452      -4.97102019      -1.49643324
H       -2.21444582      -4.60238846      -2.85843772
H       -3.86469909      -5.15237898      -3.14931595
H       -3.15219348      -1.50370786       0.56352269
H       -4.05226056      -2.98085670       0.24638104
H       -4.63995482      -1.42661735      -0.38024127
C       -1.77102344       1.77102344       1.77102344
C       -1.43747928       2.34888291       2.93758333
C       -2.42493190       3.17042559       3.64304541
C       -2.37342565       4.50798986       3.53423390
Br      -3.50789875       5.74535016       4.32311194
C       -3.43414213       2.39284557       4.44613064
C       -0.10112278       2.23902724       3.62255324
H       -2.75902118       1.89886266       1.33961832
H       -1.61277750       4.99692568       2.93335481
H       -2.93039230       1.69990728       5.12983837
H       -4.08296748       1.80902064       3.78328388
H       -4.08053987       3.02809338       5.05776078
H        0.57493597       1.52974354       3.13757107
H       -0.22641422       1.90232753       4.65799448
H        0.40252633       3.21224797       3.63709181
C        1.77102344      -1.77102344       1.77102344
C        1.49743660      -2.21798283       3.00852608
C        2.47317051      -3.06409148       3.70114091
C        2.30162689      -4.39595381       3.71806870
Br       3.39641557      -5.66111942       4.51882585
C        3.61154300      -2.31698692       4.34458841
C        0.24200044      -1.93175673       3.78894610
H        2.70210628      -2.02270405       1.27269183
H        1.45205845      -4.86228536       3.22871418
H        3.23055893      -1.52727499       5.00230403
H        4.24397472      -1.85089448       3.58040280
H        4.25572637      -2.95519361       4.95547404
H       -0.41407371      -1.20692187       3.29953049
H        0.48760075      -1.52326556       4.77586992
H       -0.33703108      -2.85102575       3.93281877
C       -0.00445707       0.01189536      -1.78238275
H       -0.66409135       0.67374010      -2.43557963
H        0.65740317      -0.63156657      -2.45157240
C       -0.90989263      -0.90692880      -0.91072765
C        0.90977584       0.90977584      -0.90977584
C       -0.00465871       1.77757030       0.00794375
H       -0.66225468       2.44313916      -0.64384735
H        0.64322798       2.43503045       0.67728295
C       -1.78241447       0.00034974      -0.00472694
H       -2.45427497      -0.65498947       0.64260836
H       -2.43311707       0.67328779      -0.65473579
C       -0.91132561       0.90220522       0.91563759
C       -0.01476271      -0.02253852       1.78660255
H       -0.67934791      -0.69751639       2.42135241
H        0.63392994       0.61504881       2.47327442
C        0.01484550      -1.77751727      -0.01636693
H        0.67870853      -2.42144646      -0.68295456
H       -0.62264859      -2.45592969       0.64226336
C        1.78714474       0.01002794       0.00389507
H        2.44202412       0.67113390       0.66197326
H        2.45385902      -0.65136977      -0.64189061
C        0.91606151      -0.90478549       0.90901405
