77
Properties=species:S:1:pos:R:3 pbc="F F F"
C        0.00000000       0.00000000       0.00000000
C        0.86173521       0.86173521      -0.86173521
C        0.53560566       2.02897778      -1.44148709
C        1.51578677       2.67237057      -2.21743810
C        2.34550720       3.21699040      -2.87427527
C        3.29920331       3.84299934      -3.62925994
C        4.12891360       4.38762571      -4.28610449
C        5.10910169       5.03102307      -5.06206102
C        6.06695072       4.27916785      -5.62921526
Br       7.46468655       4.88334267      -6.69229000
C        5.03774754       6.52423707      -5.21896951
C       -0.80453311       2.70309346      -1.32302118
H        1.84889085       0.42654441      -0.98604728
H        6.09797577       3.20160552      -5.50184141
H        4.18139507       6.94391457      -4.67735022
H        4.92052146       6.80227212      -6.27247634
H        5.93843225       7.00364039      -4.81918517
H       -1.52053824       2.15273920      -0.70749306
H       -1.25493608       2.82494568      -2.31474350
H       -0.68896065       3.69727217      -0.87637147
C       -0.86173521      -0.86173521      -0.86173521
C       -1.04128457      -0.77448838      -2.19029758
C       -1.90748533      -1.70078133      -2.79732878
C       -2.64072118      -2.48488323      -3.31116846
C       -3.48351677      -3.38614749      -3.90179833
C       -4.21675499      -4.17024026      -4.41564854
C       -5.08296192      -5.09653980      -5.02268406
C       -6.06198982      -5.63575876      -4.27758524
Br      -7.32721848      -6.87361262      -4.83948812
C       -4.87221991      -5.43730315      -6.47143107
C       -0.38303972       0.24340669      -3.08194851
H       -1.36721925      -1.62137995      -0.27288334
H       -6.19487856      -5.37402504      -3.23251909
H       -4.02154308      -4.88819760      -6.89291918
H       -5.75311697      -5.17426932      -7.06788362
H       -4.66018083      -6.50521959      -6.59585739
H        0.27687998       0.93291241      -2.54948641
H       -1.14297103       0.84813498      -3.58991704
H        0.22061555      -0.25861668      -3.84668187
C       -0.86173521       0.86173521       0.86173521
C       -1.81192629       0.46806578       1.72607845
C       -2.50433055       1.46349779       2.43776710
C       -3.09044288       2.30612943       3.04020056
C       -3.76413853       3.27466421       3.73265986
C       -4.35026186       4.11728710       4.33509484
C       -5.04267105       5.11272619       5.04678854
C       -5.14127040       6.33521101       4.49885241
Br      -5.99740856       7.81135023       5.23156044
C       -5.63724852       4.76174348       6.38196213
C       -2.19311946      -0.96322163       1.99168371
H       -0.63322959       1.91320504       0.71504791
H       -4.70355308       6.56533651       3.53253309
H       -5.44374172       3.71458656       6.64433158
H       -6.72478029       4.89640834       6.37408129
H       -5.20482116       5.37869401       7.17774265
H       -1.61868243      -1.68672059       1.40773218
H       -3.25149103      -1.12220804       1.75547010
H       -2.03972782      -1.20473841       3.04969359
C        0.86173521      -0.86173521       0.86173521
C        1.67741177      -1.85587592       0.47278284
C        2.40007439      -2.53836729       1.46715377
C        3.01179754      -3.11608802       2.30888731
C        3.71493426      -3.78013867       3.27638967
C        4.32665823      -4.35787075       4.11811482
C        5.04932598      -5.04036698       5.11249282
C        4.54300462      -5.07613866       6.35619055
Br       5.29837292      -5.90608282       7.83586349
C        6.34923748      -5.69494067       4.73677598
C        1.87737944      -2.29635159      -0.95214949
H        0.76140099      -0.59137113       1.90871042
H        3.60159771      -4.59584593       6.60397906
H        6.58004312      -5.54787714       3.67473960
H        6.30816617      -6.77608590       4.91101785
H        7.18154234      -5.27033964       5.30937583
H        1.28802976      -1.72678977      -1.67512551
H        1.59862907      -3.35037075      -1.06424672
H        2.93064894      -2.19001462      -1.23598057
