66
Properties=species:S:1:pos:R:3 pbc="F F F"
C        1.78496711       1.78496711      -1.78496711
C        1.54968618       3.15532678      -1.98406502
C        2.56197467       3.54393800      -2.82753154
Br       2.81611946       5.26944063      -3.47943918
N        3.31441573       2.43129954      -3.07546354
C        4.48971644       2.33721244      -3.90711520
N        2.85350066       1.33236399      -2.44190486
H        0.76041840       3.76761453      -1.57396276
H        4.85957282       1.30843726      -3.90256987
H        5.25396680       3.00587882      -3.50365172
H        4.21805470       2.62698315      -4.92506550
C       -1.78496711      -1.78496711      -1.78496711
C       -1.35508748      -3.00768494      -2.32630556
C       -2.44294201      -3.45366212      -3.03684008
Br      -2.51869803      -5.04392290      -4.00237834
N       -3.42143769      -2.51251112      -2.88723000
C       -4.75053089      -2.53519000      -3.44832319
N       -3.03784021      -1.47224973      -2.11767958
H       -0.39595512      -3.49109716      -2.21494340
H       -5.29079017      -1.63429849      -3.14549129
H       -5.26978441      -3.42044858      -3.07326435
H       -4.66647873      -2.56628428      -4.53734035
C       -1.78496711       1.78496711       1.78496711
C       -3.10650526       1.45487905       2.12769366
C       -3.51403782       2.50391111       2.91549528
Br      -5.19467572       2.67093252       3.69939103
N       -2.45813423       3.36652636       2.99651822
C       -2.40254029       4.61657743       3.71492637
N       -1.37858185       2.94325171       2.30593596
H       -3.67617628       0.58285328       1.84296613
H       -1.41803399       5.07240012       3.58014584
H       -2.57370051       4.41471411       4.77508272
H       -3.17384284       5.28000865       3.31625186
C        1.78496711      -1.78496711       1.78496711
C        3.04158700      -1.38171516       2.26577583
C        3.47432665      -2.45917254       2.99994503
Br       5.09544858      -2.55916782       3.91038287
N        2.49383608      -3.40676977       2.92057295
C        2.48954302      -4.71467840       3.52982266
N        1.44007620      -3.01257017       2.17512315
H        3.55459104      -0.44582508       2.10157956
H        1.56195698      -5.23397102       3.27465195
H        2.55778744      -4.59222495       4.61348496
H        3.34454034      -5.27774395       3.14781906
C       -0.00445707       0.01189536      -1.78238275
H       -0.66409135       0.67374010      -2.43557963
H        0.65740317      -0.63156657      -2.45157240
C       -0.90989263      -0.90692880      -0.91072765
C        0.90977584       0.90977584      -0.90977584
C       -0.00465871       1.77757030       0.00794375
H       -0.66225468       2.44313916      -0.64384735
H        0.64322798       2.43503045       0.67728295
C       -1.78241447       0.00034974      -0.00472694
H       -2.45427497      -0.65498947       0.64260836
H       -2.43311707       0.67328779      -0.65473579
C       -0.91132561       0.90220522       0.91563759
C       -0.01476271      -0.02253852       1.78660255
H       -0.67934791      -0.69751639       2.42135241
H        0.63392994       0.61504881       2.47327442
C        0.01484550      -1.77751727      -0.01636693
H        0.67870853      -2.42144646      -0.68295456
H       -0.62264859      -2.45592969       0.64226336
C        1.78714474       0.01002794       0.00389507
H        2.44202412       0.67113390       0.66197326
H        2.45385902      -0.65136977      -0.64189061
C        0.91606151      -0.90478549       0.90901405
