114
Properties=species:S:1:pos:R:3 pbc="F F F"
C        1.77572278       1.77572278      -1.77572278
C        1.80634322       3.14722410      -1.74597179
C        2.77539304       3.50279319      -2.71164084
N        3.31242070       2.42745951      -3.30784273
N        2.67892607       1.38841632      -2.72276460
C        3.02262789       0.04361031      -3.11546266
C        3.15638945       4.88845353      -3.02199616
C        4.12584426       5.24275391      -3.98845081
C        4.16537188       6.61284950      -3.94796483
N        3.26184239       7.00229906      -3.00306794
N        2.62548574       5.96464172      -2.41898770
C        2.94559068       8.35081634      -2.59922956
H        1.22751337       3.81144774      -1.12049622
H        2.13133286      -0.58623324      -3.08065201
H        3.78489010      -0.32706268      -2.42606420
H        3.41195614       0.05757564      -4.13708830
H        4.70355612       4.57815660      -4.61545375
H        2.20872077       8.32751599      -1.79194725
H        2.53345192       8.88219053      -3.46059082
H        3.86106873       8.83244515      -2.24695967
C        5.00836593       7.45319033      -4.75838961
C        5.71437345       8.15697576      -5.43712037
Br       6.85592789       9.29493730      -6.53457060
C       -1.77572278      -1.77572278      -1.77572278
C       -1.33897102      -2.51351424      -2.84705385
C       -2.49707495      -3.16870900      -3.32404312
N       -3.58537482      -2.85958356      -2.60276456
N       -3.11733979      -2.00277924      -1.66998795
C       -4.02798023      -1.46442181      -0.68929883
C       -2.50758273      -4.08749962      -4.47175678
C       -3.66691900      -4.74212126      -4.94800872
C       -3.22659891      -5.48966565      -6.00992165
N       -1.88585893      -5.26277812      -6.11857235
N       -1.41671915      -4.40408581      -5.18831020
C       -0.97924522      -5.82846230      -7.08792906
H       -0.33431725      -2.58734842      -3.23779167
H       -3.73950914      -0.43962294      -0.44661954
H       -3.98412361      -2.09887278       0.19910477
H       -5.04000035      -1.46343112      -1.10318862
H       -4.67233644      -4.66672430      -4.55810573
H        0.03694292      -5.47989061      -6.88523630
H       -1.29003808      -5.50258841      -8.08360678
H       -1.01708300      -6.91749800      -7.00589255
C       -4.04439126      -6.34147795      -6.83407666
C       -4.72929235      -7.05487075      -7.52430647
Br      -5.83671950      -8.20836658      -8.64034971
C       -1.77572278       1.77572278       1.77572278
C       -3.11640440       1.58552212       1.99761258
C       -3.48181997       2.62512125       2.88288586
N       -2.44170430       3.41448367       3.19153497
N       -1.41612076       2.87742661       2.49655962
C       -0.10641586       3.47262556       2.60265945
C       -4.84090196       2.81568558       3.41025158
C       -5.20512918       3.85626545       4.29565435
C       -6.54188304       3.65690176       4.52740141
N       -6.90392576       2.55700400       3.80627964
N       -5.88018634       2.02036843       3.10856038
C       -8.21244540       1.95417183       3.72901934
H       -3.75333597       0.81114625       1.59497512
H        0.41029243       3.39193742       1.64410664
H        0.44441778       2.94404843       3.38426096
H       -0.21345539       4.52882450       2.86434020
H       -4.56817444       4.63203461       4.69695741
H       -8.16749033       1.06214729       3.09854637
H       -8.90271600       2.68051558       3.29300170
H       -8.52740153       1.67545083       4.73762119
C       -7.37779920       4.46819341       5.37395325
C       -8.07787899       5.14765016       6.08294043
Br      -9.20984880       6.24627427       7.22931272
C        1.77572278      -1.77572278       1.77572278
C        2.61588945      -1.32233266       2.76131699
C        3.19293951      -2.49313692       3.30375063
N        2.74715969      -3.60364632       2.69691693
N        1.88984495      -3.13569424       1.76456779
C        1.19527961      -4.07172211       0.91469915
C        4.16277892      -2.49534809       4.40871212
C        4.73943632      -3.66735537       4.95025730
C        5.56826490      -3.21382470       5.94409661
N        5.45710782      -1.85427582       5.95582576
N        4.60232029      -1.38450142       5.02229345
C        6.13713935      -0.92907800       6.82941922
H        2.79404237      -0.30072466       3.06469031
H        1.06721168      -3.63751134      -0.07897139
H        0.22582826      -4.28853702       1.36952633
H        1.78706150      -4.98740287       0.83215572
H        4.56248260      -4.68927815       4.64540572
H        5.80438791       0.08968129       6.61347739
H        7.21218588      -1.01218862       6.65185878
H        5.89314751      -1.18356384       7.86376220
C        6.38686538      -4.03701474       6.79606574
C        7.07244328      -4.72643641       7.50958989
Br       8.18096477      -5.84117293       8.66329808
C       -0.00445707       0.01189536      -1.78238275
H       -0.66409135       0.67374010      -2.43557963
H        0.65740317      -0.63156657      -2.45157240
C       -0.90989263      -0.90692880      -0.91072765
C        0.90977584       0.90977584      -0.90977584
C       -0.00465871       1.77757030       0.00794375
H       -0.66225468       2.44313916      -0.64384735
H        0.64322798       2.43503045       0.67728295
C       -1.78241447       0.00034974      -0.00472694
H       -2.45427497      -0.65498947       0.64260836
H       -2.43311707       0.67328779      -0.65473579
C       -0.91132561       0.90220522       0.91563759
C       -0.01476271      -0.02253852       1.78660255
H       -0.67934791      -0.69751639       2.42135241
H        0.63392994       0.61504881       2.47327442
C        0.01484550      -1.77751727      -0.01636693
H        0.67870853      -2.42144646      -0.68295456
H       -0.62264859      -2.45592969       0.64226336
C        1.78714474       0.01002794       0.00389507
H        2.44202412       0.67113390       0.66197326
H        2.45385902      -0.65136977      -0.64189061
C        0.91606151      -0.90478549       0.90901405
