85
Properties=species:S:1:pos:R:3 pbc="F F F"
C        0.00000000       0.00000000       0.00000000
C        0.86581876       0.86581876      -0.86581876
C        0.89643920       2.23732007      -0.83606777
C        1.86548901       2.59288916      -1.80173682
N        2.40251667       1.51755549      -2.39793871
N        1.76902204       0.47851229      -1.81286058
C        2.11272387      -0.86629371      -2.20555864
C        2.24648542       3.97854950      -2.11209213
C        3.21594024       4.33284989      -3.07854678
C        3.25546785       5.70294548      -3.03806080
N        2.35193837       6.09239504      -2.09316392
N        1.71558172       5.05473769      -1.50908367
C        2.03568666       7.44091231      -1.68932553
Br       4.34563563       6.78968208      -4.08610970
H        0.31760934       2.90154372      -0.21059220
H        1.22142883      -1.49613727      -2.17074799
H        2.87498608      -1.23696671      -1.51616017
H        2.50205212      -0.85232838      -3.22718428
H        3.79365210       3.66825257      -3.70554972
H        1.29881674       7.41761196      -0.88204322
H        1.62354790       7.97228651      -2.55068680
H        2.95116470       7.92254113      -1.33705565
C       -0.86581876      -0.86581876      -0.86581876
C       -0.80088984      -0.93419649      -2.23474071
C       -1.78267550      -1.88678589      -2.59065361
N       -2.42118711      -2.37876426      -1.51805950
N       -1.84672714      -1.73305783      -0.48060995
C       -2.28374226      -2.02992359       0.86167705
C       -2.06669154      -2.29673957      -3.97369595
C       -3.04930649      -3.24967882      -4.32835160
C       -2.97392740      -3.32720146      -5.69534527
N       -1.99509735      -2.45963789      -6.08276209
N       -1.42152094      -1.81108265      -5.04679950
C       -1.54759280      -2.19059552      -7.42773618
Br      -4.02209629      -4.41838301      -6.78094810
H       -0.14279623      -0.39012441      -2.89682463
H       -2.24145678      -1.12318430       1.46860153
H       -1.62513179      -2.79975438       1.27070663
H       -3.31477916      -2.39251760       0.83038875
H       -3.70890605      -3.79258350      -3.66596485
H       -0.72161719      -1.47482433      -7.40203041
H       -2.38326793      -1.77045806      -7.99279521
H       -1.20761770      -3.12766984      -7.87547393
C       -0.86581876       0.86581876       0.86581876
C       -0.66503175       1.10234742       2.20244786
C       -1.70955331       1.98117144       2.56939025
N       -2.51167962       2.27232532       1.53400592
N       -1.97774758       1.57268090       0.50996643
C       -2.58634626       1.66056317      -0.79492064
C       -1.89225047       2.51970893       3.92516765
C       -2.93776520       3.39864172       4.29092998
C       -2.72794780       3.64507610       5.62345023
N       -1.61779896       2.93793531       5.98176305
N       -1.08424457       2.23556090       4.95959761
C       -1.00185551       2.87895106       7.28511793
Br      -3.77725249       4.74014599       6.70402892
H        0.11918186       0.71320616       2.83572096
H       -2.50138251       0.69791021      -1.30325317
H       -2.07054100       2.44183203      -1.35819349
H       -3.64394131       1.91321678      -0.68025007
H       -3.72335940       3.78643526       3.65765973
H       -0.10429480       2.25657503       7.23760210
H       -1.71739838       2.44269341       7.98642942
H       -0.72983846       3.89312721       7.58779580
C        0.86581876      -0.86581876       0.86581876
C        0.74332228      -2.22583672       1.00066803
C        1.77863938      -2.59002934       1.89144627
N        2.49814539      -1.52996264       2.28990283
N        1.91464456      -0.49111474       1.65463561
C        2.44785798       0.83629325       1.84042406
C        2.04180842      -3.96984728       2.32547136
C        3.07775893      -4.33275234       3.21682564
C        2.96289128      -5.69363831       3.33994455
N        1.91377273      -6.07018360       2.55354100
N        1.32741966      -5.03224484       1.91973859
C        1.40587584      -7.40581679       2.35423187
Br       4.04828720      -6.78499906       4.38814115
H        0.02368512      -2.87840169       0.52765846
H        1.63276441       1.56274807       1.82602322
H        3.15594133       1.03393608       1.03217430
H        2.95521981       0.88600185       2.80769006
H        3.79652033      -3.67951616       3.69141791
H        0.58284602      -7.38056666       1.63505925
H        1.04674235      -7.78607460       3.31370426
H        2.21365502      -8.03107788       1.96602857
