106
Properties=species:S:1:pos:R:3 pbc="F F F"
C        1.77572278       1.77572278      -1.77572278
C        1.80634322       3.14722410      -1.74597179
C        2.77539304       3.50279319      -2.71164084
N        3.31242070       2.42745951      -3.30784273
N        2.67892607       1.38841632      -2.72276460
C        3.02262789       0.04361031      -3.11546266
C        3.15638945       4.88845353      -3.02199616
C        4.12584426       5.24275391      -3.98845081
C        4.16537188       6.61284950      -3.94796483
N        3.26184239       7.00229906      -3.00306794
N        2.62548574       5.96464172      -2.41898770
C        2.94559068       8.35081634      -2.59922956
Br       5.25553966       7.69958610      -4.99601372
H        1.22751337       3.81144774      -1.12049622
H        2.13133286      -0.58623324      -3.08065201
H        3.78489010      -0.32706268      -2.42606420
H        3.41195614       0.05757564      -4.13708830
H        4.70355612       4.57815660      -4.61545375
H        2.20872077       8.32751599      -1.79194725
H        2.53345192       8.88219053      -3.46059082
H        3.86106873       8.83244515      -2.24695967
C       -1.77572278      -1.77572278      -1.77572278
C       -1.34285435      -2.49665689      -2.86002787
C       -2.49889895      -3.15946172      -3.33146640
N       -3.58240691      -2.87056227      -2.59475376
N       -3.11347229      -2.01895617      -1.65767852
C       -4.01897625      -1.50173704      -0.66098757
C       -2.51208472      -4.06553784      -4.48921657
C       -3.66935959      -4.72779162      -4.95989777
C       -3.23270966      -5.45854182      -6.03493472
N       -1.89586787      -5.21545486      -6.15588667
N       -1.42587774      -4.36192075      -5.22131666
C       -0.99396034      -5.76016804      -7.14150819
Br      -4.28989105      -6.56001680      -7.10123163
H       -0.34188556      -2.55489441      -3.26267737
H       -3.73917774      -0.47652218      -0.41005170
H       -3.95813957      -2.14546244       0.21971039
H       -5.03551950      -1.50750021      -1.06360038
H       -4.67111862      -4.66799082      -4.55805703
H        0.02051024      -5.40249887      -6.94619537
H       -1.31948274      -5.42678382      -8.12996672
H       -1.01880625      -6.85040155      -7.07126574
C       -1.77572278       1.77572278       1.77572278
C       -3.11161683       1.57309874       2.01482353
C       -3.47883800       2.61847518       2.89251389
N       -2.44431264       3.42281670       3.18059360
N       -1.42055142       2.88942626       2.48012931
C       -0.11653982       3.50035078       2.56481026
C       -4.83401752       2.79980774       3.43301388
C       -5.20006010       3.84617951       4.31080937
C       -6.53181365       3.63454854       4.55982402
N       -6.88944893       2.52262047       3.85513999
N       -5.86756696       1.98959997       3.15194823
C       -8.19186777       1.90440212       3.79936668
Br      -7.61231577       4.68387758       5.65494613
H       -3.74422581       0.78717779       1.62805373
H        0.39032492       3.41462541       1.60145113
H        0.44890030       2.98679587       3.34599604
H       -0.23255807       4.55817415       2.81588787
H       -4.56745854       4.63347878       4.69622914
H       -8.14388973       1.00588159       3.17841268
H       -8.89510394       2.61804089       3.36308844
H       -8.49239482       1.63357757       4.81450116
C        1.77572278      -1.77572278       1.77572278
C        2.56691611      -1.32875875       2.80386424
C        3.16538428      -2.49771075       3.32673204
N        2.77806538      -3.60096389       2.66869367
N        1.93652388      -3.13001008       1.72357302
C        1.30276687      -4.05889419       0.82003981
C        4.09772021      -2.50562820       4.46349072
C        4.69586658      -3.67576448       4.98541792
C        5.47545757      -3.22931598       6.02141266
N        5.31761370      -1.87537249       6.07422321
N        4.47857338      -1.40247457       5.12806720
C        5.93643976      -0.95859623       7.00060058
Br       6.53285720      -4.29533988       7.12294240
H        2.69996576      -0.31278095       3.14671062
H        1.19282594      -3.59547094      -0.16254525
H        0.32679571      -4.32300541       1.23409049
H        1.92787431      -4.95118291       0.72756287
H        4.56407433      -4.69196663       4.64112551
H        5.57640608       0.05539998       6.80717790
H        7.01897360      -1.00005331       6.85720636
H        5.66726081      -1.25617115       8.01704158
C       -0.00445707       0.01189536      -1.78238275
H       -0.66409135       0.67374010      -2.43557963
H        0.65740317      -0.63156657      -2.45157240
C       -0.90989263      -0.90692880      -0.91072765
C        0.90977584       0.90977584      -0.90977584
C       -0.00465871       1.77757030       0.00794375
H       -0.66225468       2.44313916      -0.64384735
H        0.64322798       2.43503045       0.67728295
C       -1.78241447       0.00034974      -0.00472694
H       -2.45427497      -0.65498947       0.64260836
H       -2.43311707       0.67328779      -0.65473579
C       -0.91132561       0.90220522       0.91563759
C       -0.01476271      -0.02253852       1.78660255
H       -0.67934791      -0.69751639       2.42135241
H        0.63392994       0.61504881       2.47327442
C        0.01484550      -1.77751727      -0.01636693
H        0.67870853      -2.42144646      -0.68295456
H       -0.62264859      -2.45592969       0.64226336
C        1.78714474       0.01002794       0.00389507
H        2.44202412       0.67113390       0.66197326
H        2.45385902      -0.65136977      -0.64189061
C        0.91606151      -0.90478549       0.90901405
