109
Properties=species:S:1:pos:R:3 pbc="F F F"
C        0.00000000       0.00000000       0.00000000
C        0.86590063       0.86590063      -0.86590063
C        0.67425153       2.21070274      -1.07125388
C        1.71650917       2.58055307      -1.93922611
N        2.50981037       1.55699727      -2.26293882
N        1.96849655       0.51506785      -1.59259592
C        2.58934240      -0.78090730      -1.71759273
C        1.99545264       3.86704769      -2.47737279
C        2.20488880       4.96608608      -2.91462033
C        2.44022030       6.38116749      -3.45059296
C        2.59572226       7.50251901      -3.85076569
C        2.75017385       8.84207650      -4.30406443
C        1.94492299       9.95719008      -4.00638024
C        2.53569512      10.98755932      -4.69415903
N        3.61707651      10.45985908      -5.34064088
N        3.76989246       9.13701504      -5.11487183
C        4.55326529      11.15342018      -6.19139152
H       -0.10203584       2.83767170      -0.65759395
H        2.04915610      -1.52340315      -1.12858676
H        3.61852071      -0.70391639      -1.35743916
H        2.57504290      -1.06741975      -2.77236499
H        1.06505396       9.99715166      -3.38123749
H        5.30364783      10.44924657      -6.56025739
H        5.03932591      11.93714416      -5.60518699
H        4.00464942      11.58238459      -7.03347157
C        2.08107746      12.35379481      -4.71214162
C        1.70033517      13.49801703      -4.72720203
Br       1.08470708      15.34812759      -4.75155345
C       -0.86590063      -0.86590063      -0.86590063
C       -0.57663538      -2.16209042      -1.21748235
C       -1.66156056      -2.55326341      -2.02146438
N       -2.57028018      -1.58720354      -2.17226275
N       -2.06080385      -0.56108448      -1.45427199
C       -2.80337720       0.67419373      -1.39684436
C       -1.87637998      -3.80798064      -2.65551251
C       -2.02909664      -4.87905463      -3.17744394
C       -2.18906593      -6.25718150      -3.82573331
C       -2.28272724      -7.34840832      -4.31787139
C       -2.36116672      -8.65112372      -4.88402433
C       -1.43501563      -9.70447003      -4.76900765
C       -1.99624325     -10.72240151      -5.49876872
N       -3.17799148     -10.24730857      -5.99227643
N       -3.42482527      -8.97091310      -5.62604096
C       -4.12737922     -10.95056396      -6.82013381
H        0.28880178      -2.74465760      -0.93737400
H       -2.27638093       1.41059510      -0.78855388
H       -3.78166493       0.46565750      -0.95603605
H       -2.91737993       1.05316733      -2.41577555
H       -0.49836783      -9.71381612      -4.23125916
H       -4.96962192     -10.29291500      -7.05061487
H       -4.48256886     -11.82681049      -6.27227771
H       -3.62753429     -11.24764067      -7.74533060
C       -1.42614610     -12.03083907      -5.69002872
C       -0.94868973     -13.12665553      -5.85020897
Br      -0.17668318     -14.89849806      -6.10920689
C       -0.86590063       0.86590063       0.86590063
C       -2.11804508       0.52293137       1.31523170
C       -2.52817621       1.63097200       2.07714014
N       -1.61412256       2.60310227       2.11252164
N       -0.60254465       2.11135580       1.36225987
C        0.57811398       2.92052623       1.18361559
C       -3.75334427       1.80976243       2.77676643
C       -4.79771453       1.92991950       3.35796117
C       -6.13956629       2.04565895       4.08675550
C       -7.20023955       2.10206661       4.64670080
C       -8.46466563       2.13382032       5.29782883
C       -9.46961543       1.14865989       5.29021798
C      -10.46523706       1.68268534       6.06949108
N      -10.02507066       2.90701912       6.48548670
N       -8.79256428       3.20736643       6.02184862
C      -10.72196366       3.84864928       7.32746405
H       -2.66040935      -0.39152478       1.12434525
H        1.30669289       2.40306781       0.55796479
H        1.01168823       3.11589539       2.16783633
H        0.28215396       3.85746843       0.70467368
H       -9.46257686       0.19203445       4.78883180
H      -10.10268954       4.73768201       7.47278024
H      -10.91682689       3.37303541       8.29179477
H      -11.65737991       4.12712505       6.83600061
C      -11.72271267       1.05045081       6.37385041
C      -12.77584849       0.52095440       6.62875134
Br     -14.47868004      -0.33519652       7.04090460
C        0.86590063      -0.86590063       0.86590063
C        2.18731596      -0.61933696       1.14955523
C        2.56719618      -1.68514582       1.98394635
N        1.57124531      -2.54326624       2.21523493
N        0.53705853      -2.02013294       1.51896884
C       -0.72995293      -2.70898853       1.54699222
C        3.83792495      -1.92706945       2.57487872
C        4.92264709      -2.10288956       3.06005856
C        6.31818680      -2.29233516       3.66145879
C        7.42298769      -2.40897453       4.11704474
C        8.74172130      -2.51452949       4.64006400
C        9.83189845      -1.65072533       4.42586953
C       10.84931206      -2.21107630       5.15702512
N       10.33887637      -3.33299664       5.74570346
N        9.03951751      -3.54095821       5.44130361
C       11.02753682      -4.25767820       6.61286197
H        2.79294111       0.20706788       0.80735659
H       -1.46806403      -2.17909806       0.94330568
H       -1.07042623      -2.75791783       2.58455189
H       -0.58183328      -3.71525000       1.14657143
H        9.86430156      -0.75310825       3.82603330
H       10.34335929      -5.05501357       6.91477893
H       11.37255024      -3.71360117       7.49550566
H       11.87161534      -4.68379304       6.06509720
C       12.18862957      -1.69325245       5.26513187
C       13.31030798      -1.25957498       5.35567127
Br      15.12396711      -0.55835518       5.50206583
