101
Properties=species:S:1:pos:R:3 pbc="F F F"
C        0.00000000       0.00000000       0.00000000
C        0.86590063       0.86590063      -0.86590063
C        0.67425153       2.21070274      -1.07125388
C        1.71650917       2.58055307      -1.93922611
N        2.50981037       1.55699727      -2.26293882
N        1.96849655       0.51506785      -1.59259592
C        2.58934240      -0.78090730      -1.71759273
C        1.99545264       3.86704769      -2.47737279
C        2.20488880       4.96608608      -2.91462033
C        2.44022030       6.38116749      -3.45059296
C        2.59572226       7.50251901      -3.85076569
C        2.75017385       8.84207650      -4.30406443
C        1.94492299       9.95719008      -4.00638024
C        2.53569512      10.98755932      -4.69415903
N        3.61707651      10.45985908      -5.34064088
N        3.76989246       9.13701504      -5.11487183
C        4.55326529      11.15342018      -6.19139152
Br       1.94771599      12.75457811      -4.71741678
H       -0.10203584       2.83767170      -0.65759395
H        2.04915610      -1.52340315      -1.12858676
H        3.61852071      -0.70391639      -1.35743916
H        2.57504290      -1.06741975      -2.77236499
H        1.06505396       9.99715166      -3.38123749
H        5.30364783      10.44924657      -6.56025739
H        5.03932591      11.93714416      -5.60518699
H        4.00464942      11.58238459      -7.03347157
C       -0.86590063      -0.86590063      -0.86590063
C       -0.63518114      -2.19499518      -1.12603183
C       -1.69451789      -2.57173855      -1.97003191
N       -2.53401516      -1.56676158      -2.22896973
N       -2.00544316      -0.52993881      -1.54077835
C       -2.67501155       0.74642060      -1.59743687
C       -1.94779945      -3.84797219      -2.54410148
C       -2.13454010      -4.93798720      -3.01306791
C       -2.33972090      -6.34115331      -3.59110653
C       -2.47048621      -7.45280064      -4.02572010
C       -2.59453657      -8.78049845      -4.52127976
C       -1.74086167      -9.87558496      -4.29204668
C       -2.31985880     -10.90203583      -4.99551884
N       -3.44146929     -10.39144997      -5.58465723
N       -3.63190724      -9.08359791      -5.30627418
C       -4.38300955     -11.08828135      -6.42678609
Br      -1.67209272     -12.64488400      -5.10273416
H        0.17678813      -2.80761684      -0.76240111
H       -2.14009407       1.48696814      -1.00121378
H       -3.68727240       0.61999462      -1.20476570
H       -2.70862490       1.06971571      -2.64107895
H       -0.83821574      -9.90555073      -3.69967664
H       -5.17017580     -10.39917514      -6.74380085
H       -4.82015869     -11.90886705      -5.85263133
H       -3.85047846     -11.46773157      -7.30229554
C       -0.86590063       0.86590063       0.86590063
C       -2.12921348       0.53474821       1.29224645
C       -2.53446569       1.63761114       2.06421152
N       -1.60720753       2.59576646       2.12677249
N       -0.59198541       2.10017347       1.38400144
C        0.60259741       2.89459518       1.23403005
C       -3.76697600       1.82413762       2.74875950
C       -4.81784595       1.95111313       3.31663612
C       -6.16834113       2.07587801       4.02776160
C       -7.23611431       2.13965798       4.57323467
C       -8.50927416       2.18044193       5.20659869
C       -9.52799910       1.21018115       5.17031305
C      -10.52708445       1.74739769       5.94293133
N      -10.07553128       2.95913698       6.38290821
N       -8.83225455       3.24816602       5.94135876
C      -10.77102873       3.89864064       7.22840762
Br     -12.17051299       0.94784159       6.30135631
H       -2.68177730      -0.36891503       1.08036755
H        1.33270281       2.37562037       0.61142215
H        1.02459139       3.06954987       2.22708501
H        0.32705485       3.84249049       0.76455250
H       -9.52737079       0.26082538       4.65524695
H      -10.14127333       4.77642141       7.39545705
H      -10.98665251       3.41215755       8.18284701
H      -11.69513340       4.19766668       6.72770549
C        0.86590063      -0.86590063       0.86590063
C        2.21623951      -0.69117770       1.04879095
C        2.58350248      -1.72552568       1.92726020
N        1.55335939      -2.49868920       2.27769788
N        0.50972420      -1.95216074       1.61427538
C       -0.79332892      -2.55136889       1.76798787
C        3.87328372      -2.01451648       2.45207293
C        4.97490667      -2.23185377       2.87883476
C        6.39297004      -2.47630129       3.40270941
C        7.51632057      -2.63791433       3.79477206
C        8.85791736      -2.79860014       4.23979728
C        9.98339152      -2.02502210       3.90007969
C       11.01032589      -2.60529365       4.60179394
N       10.47103630      -3.65124582       5.29529435
N        9.14369476      -3.79031269       5.08777188
C       11.15683778      -4.56371306       6.17752615
Br      12.78665783      -2.04578530       4.58726776
H        2.84827773       0.06961270       0.61456479
H       -1.53550799      -2.01215100       1.17769670
H       -1.06585230      -2.51206464       2.82583114
H       -0.73591637      -3.58846524       1.42743928
H       10.03182955      -1.17106602       3.24054754
H       10.44570463      -5.29281993       6.57462723
H       11.59377119      -3.98961763       6.99826825
H       11.93383475      -5.07905004       5.60762078
