122
Properties=species:S:1:pos:R:3 pbc="F F F"
C        1.77580465       1.77580465      -1.77580465
C        1.58415556       3.12060677      -1.98115790
C        2.62641320       3.49045709      -2.84913014
N        3.41971440       2.46690129      -3.17284285
N        2.87840057       1.42497187      -2.50249995
C        3.49924642       0.12899672      -2.62749676
C        2.90535667       4.77695172      -3.38727681
C        3.11479282       5.87599010      -3.82452435
C        3.35012433       7.29107151      -4.36049698
C        3.50562628       8.41242303      -4.76066971
C        3.66007787       9.75198053      -5.21396845
C        2.85482701      10.86709410      -4.91628426
C        3.44559915      11.89746335      -5.60406306
N        4.52698054      11.36976311      -6.25054491
N        4.67979648      10.04691906      -6.02477586
C        5.46316931      12.06332420      -7.10129555
Br       2.85762002      13.66448213      -5.62732081
H        0.80786818       3.74757573      -1.56749798
H        2.95906012      -0.61349912      -2.03849078
H        4.52842474       0.20598764      -2.26734318
H        3.48494693      -0.15751573      -3.68226902
H        1.97495799      10.90705568      -4.29114152
H        6.21355185      11.35915060      -7.47016141
H        5.94922993      12.84704819      -6.51509102
H        4.91455344      12.49228861      -7.94337559
C       -1.77580465      -1.77580465      -1.77580465
C       -1.31256634      -2.76860878      -2.60474511
C       -2.47343958      -3.29266471      -3.19989614
N       -3.58783668      -2.68538595      -2.78623591
N       -3.13515828      -1.75805184      -1.91266227
C       -4.09457806      -0.90138108      -1.25978077
C       -2.57377765      -4.34866323      -4.14714432
C       -2.62504978      -5.24449450      -4.94576300
C       -2.64997552      -6.39052154      -5.96119576
C       -2.63256932      -7.29202742      -6.75412229
C       -2.57425241      -8.36223112      -7.68954332
C       -1.43461434      -9.03407546      -8.16951558
C       -1.94029378      -9.96857361      -9.03825816
N       -3.29757895      -9.81509487      -9.03461473
N       -3.71244572      -8.82953076      -8.20951492
C       -4.26652073     -10.57088086      -9.79038748
Br      -0.93725268     -11.19526980     -10.01690048
H       -0.28825216      -3.07408241      -2.76060732
H       -3.59169220      -0.20422548      -0.58813409
H       -4.78264978      -1.53023835      -0.68886743
H       -4.63608250      -0.34464500      -2.02897272
H       -0.39975028      -8.85832824      -7.91507667
H       -5.27148772     -10.20159978      -9.56977636
H       -4.18792569     -11.62184950      -9.50159395
H       -4.05220718     -10.44367849     -10.85433198
C       -1.77580465       1.77580465       1.77580465
C       -3.04552449       1.45191668       2.18847905
C       -3.44797802       2.55159680       2.96642560
N       -2.51314486       3.50116102       3.04515267
N       -1.49583204       3.00320326       2.30683710
C       -0.29326155       3.78855836       2.17391999
C       -4.68470080       2.74287947       3.64200493
C       -5.73930024       2.87404738       4.20195965
C       -7.09475554       3.00436222       4.90257505
C       -8.16660365       3.07267615       5.43943923
C       -9.44477669       3.11901419       6.06223597
C      -10.47139958       2.15790882       6.00889698
C      -11.47247845       2.69709321       6.77755388
N      -11.01440050       3.90109707       7.23179097
N       -9.76494407       4.18316717       6.80338017
C      -11.70910625       4.83930186       8.07938096
Br     -13.12570088       1.90868991       7.11503217
H       -3.60393947       0.55488839       1.96411402
H        0.43772090       3.26865005       1.55312263
H        0.12164230       3.95138552       3.17201233
H       -0.55664586       4.74276620       1.71028815
H      -10.47444198       1.21301580       5.48569741
H      -11.07334027       5.71016754       8.25935605
H      -11.93708892       4.34656140       9.02771882
H      -12.62627695       5.15054081       7.57339988
C        1.77580465      -1.77580465       1.77580465
C        2.83314018      -1.32469170       2.52808834
C        3.32841646      -2.48015729       3.15742668
N        2.64469789      -3.58019145       2.83456920
N        1.69665979      -3.12362279       1.98558981
C        0.75892317      -4.06781039       1.42900633
C        4.42560434      -2.58823479       4.05574608
C        5.35676321      -2.64614493       4.81239913
C        6.54817983      -2.67959931       5.77391367
C        7.48539614      -2.66890306       6.52441983
C        8.59806162      -2.61856467       7.40940056
C        9.36183716      -1.49620036       7.78016787
C       10.29834931      -2.00225822       8.64651801
N       10.05830986      -3.34327875       8.74569995
N        9.01345570      -3.74700499       7.99103072
C       10.78133973      -4.30606569       9.54038365
Br      11.62666542      -1.01831138       9.50444615
H        3.19759188      -0.31145943       2.61389058
H        0.05669808      -3.56397199       0.76338171
H        0.21354334      -4.53524443       2.25296778
H        1.32114146      -4.81956497       0.86899379
H        9.24164010      -0.47177410       7.45974099
H       10.34533668      -5.29849571       9.39903148
H       10.70473078      -4.01560023      10.59103813
H       11.82428490      -4.31162140       9.21431134
C       -0.00445707       0.01189536      -1.78238275
H       -0.66409135       0.67374010      -2.43557963
H        0.65740317      -0.63156657      -2.45157240
C       -0.90989263      -0.90692880      -0.91072765
C        0.90977584       0.90977584      -0.90977584
C       -0.00465871       1.77757030       0.00794375
H       -0.66225468       2.44313916      -0.64384735
H        0.64322798       2.43503045       0.67728295
C       -1.78241447       0.00034974      -0.00472694
H       -2.45427497      -0.65498947       0.64260836
H       -2.43311707       0.67328779      -0.65473579
C       -0.91132561       0.90220522       0.91563759
C       -0.01476271      -0.02253852       1.78660255
H       -0.67934791      -0.69751639       2.42135241
H        0.63392994       0.61504881       2.47327442
C        0.01484550      -1.77751727      -0.01636693
H        0.67870853      -2.42144646      -0.68295456
H       -0.62264859      -2.45592969       0.64226336
C        1.78714474       0.01002794       0.00389507
H        2.44202412       0.67113390       0.66197326
H        2.45385902      -0.65136977      -0.64189061
C        0.91606151      -0.90478549       0.90901405
