85
Properties=species:S:1:pos:R:3 pbc="F F F"
C        0.00000000       0.00000000       0.00000000
C        0.87465796       0.87465796      -0.87465796
C        0.58291727       2.21593710      -1.16163215
C        1.61310791       2.63413421      -1.98084684
N        2.43395850       1.53687936      -2.12223256
N        1.99875318       0.45260521      -1.44764151
C        3.67447101       1.44781384      -2.85783628
C        1.82463971       3.91059292      -2.59038038
C        2.06571979       4.21783059      -3.91567118
C        2.17605499       5.61555042      -3.94506571
N        2.02767389       6.17469190      -2.74684574
N        1.80963686       5.12098096      -1.93309020
C        1.62742241       5.35849202      -0.51957606
Br       2.50176706       6.59908225      -5.51038779
H       -0.26946451       2.79390489      -0.83470777
H        4.24231078       0.58231027      -2.50550618
H        4.25829945       2.35520625      -2.68677726
H        3.43458349       1.33118201      -3.91727416
H        2.13234485       3.52948317      -4.74631554
H        0.55987733       5.29090097      -0.29758602
H        1.99890314       6.35601030      -0.26969443
H        2.19199010       4.61236091       0.04472301
C       -0.87465796      -0.87465796      -0.87465796
C       -0.64714658      -2.24473865      -1.06860129
C       -1.65293708      -2.65249101      -1.92266087
N       -2.39832989      -1.52142308      -2.17331744
N       -1.93811827      -0.42514770      -1.53573393
C       -3.58842988      -1.40691429      -2.98477696
C       -1.90520425      -3.94894995      -2.47145882
C       -2.08969991      -4.32005076      -3.78947089
C       -2.28064188      -5.70872697      -3.74730228
N       -2.23265559      -6.20347691      -2.51307903
N       -1.99846496      -5.11732120      -1.74792187
C       -1.90975994      -5.28066777      -0.31506278
Br      -2.57606892      -6.76334912      -5.27181906
H        0.15001313      -2.84903080      -0.66013047
H       -4.12289402      -0.49176687      -2.71546635
H       -4.23350223      -2.26861864      -2.79816210
H       -3.28333016      -1.36667100      -4.03303850
H       -2.06907323      -3.67935856      -4.65971176
H       -0.85413831      -5.25974447      -0.03448153
H       -2.35291204      -6.23938915      -0.03230668
H       -2.45984533      -4.47215202       0.17236934
C       -0.87465796       0.87465796       0.87465796
C       -1.81989803       0.36443638       1.77615210
C       -2.39145164       1.47922843       2.35740889
N       -1.75960838       2.55683030       1.77663173
N       -0.82491532       2.20414363       0.86994095
C       -1.96479338       3.95967053       2.05565723
C       -3.42687494       1.55778943       3.34094864
C       -4.60489648       2.27925050       3.31507458
C       -5.24131352       1.96960159       4.52575602
N       -4.54155320       1.12672843       5.28092989
N       -3.44006118       0.88233226       4.54131458
C       -2.42202749       0.00747772       5.07598528
Br      -6.90676357       2.67150407       5.03296947
H       -2.06649947      -0.67074862       1.96339729
H       -1.10227901       4.52915933       1.69868889
H       -2.06674559       4.09916580       3.13437157
H       -2.86802297       4.28240485       1.53261184
H       -4.96206375       2.92264941       2.52343040
H       -2.52257450      -0.96731149       4.59310129
H       -2.56276538      -0.09369731       6.15553980
H       -1.43832935       0.44098799       4.88031067
C        0.87465796      -0.87465796       0.87465796
C        1.92220779      -0.37594960       1.66232912
C        2.45505596      -1.48692572       2.28610729
N        1.70302492      -2.55102806       1.83901744
N        0.72824416      -2.19297402       0.97778172
C        1.82698833      -3.94164511       2.21148769
C        3.55592829      -1.57473576       3.19494897
C        4.67276195      -2.38627373       3.14018588
C        5.42291874      -2.04032277       4.27342962
N        4.84758764      -1.09256911       5.00905478
N        3.71219064      -0.81697441       4.33454296
C        2.80545009       0.17150311       4.87154351
Br       7.06759178      -2.83188845       4.71175687
H        2.25727811       0.64758270       1.74945273
H        0.90006257      -4.46620554       1.96385912
H        2.00276794      -4.00996421       3.28755082
H        2.66060459      -4.37132181       1.65111327
H        4.91909522      -3.11149390       2.37755443
H        2.93839254       1.09774819       4.30771997
H        3.03734365       0.33949720       5.92676142
H        1.78055489      -0.19664170       4.78243142
