101
Properties=species:S:1:pos:R:3 pbc="F F F"
C        0.00000000       0.00000000       0.00000000
C        0.87474216       0.87474216      -0.87474216
C        0.63668447       2.24266097      -1.08212102
C        1.64999042       2.64348892      -1.92485206
N        2.40571135       1.52348433      -2.16045491
N        1.94777533       0.42562223      -1.52522834
C        3.58625585       1.42997557      -2.98663510
C        1.88462039       3.94111213      -2.45278863
C        2.09007071       5.03588255      -2.90225716
C        2.36309165       6.42707942      -3.48006470
C        2.58978878       7.51298959      -3.93899069
C        2.86818041       8.79430398      -4.48656974
C        2.16047040       9.96086633      -4.29329872
C        2.85228503      10.91893437      -5.04906137
N        3.91570756      10.42134124      -5.67893481
N        3.90665879       9.11978968      -5.32110422
C        4.94409106       8.25592852      -5.83282804
Br       2.33714942      12.72135081      -5.16471500
H       -0.15756576       2.85308237      -0.67746037
H        3.96022140       0.40281856      -2.97545686
H        4.34509239       2.10469013      -2.58274596
H        3.31773302       1.71504690      -4.00684715
H        1.27315644      10.09586995      -3.69185530
H        4.80621061       7.23757194      -5.46464739
H        5.90907551       8.64289087      -5.49552731
H        4.88902285       8.26407986      -6.92443859
C       -0.87474216      -0.87474216      -0.87474216
C       -0.36591210      -1.86095941      -1.73459496
C       -1.48217029      -2.40756290      -2.32859821
N       -2.55420547      -1.73333260      -1.80211252
N       -2.20425302      -0.78750656      -0.90686631
C       -3.94911370      -1.94292587      -2.11082693
C       -1.53688981      -3.45298639      -3.28864495
C       -1.59120875      -4.33716292      -4.09983874
C       -1.67329517      -5.46416659      -5.13277401
C       -1.75239084      -6.34764725      -5.94173097
C       -1.85764673      -7.39322674      -6.89818066
C       -0.83149518      -8.11590772      -7.46723255
C       -1.47396708      -9.01359776      -8.33271594
N       -2.80031933      -8.88719108      -8.32847320
N       -3.01355590      -7.88998819      -7.44400860
C       -4.37228823      -7.47753787      -7.18302151
Br      -0.56268468     -10.26871149      -9.39181906
H        0.66517562      -2.13752824      -1.90062437
H       -4.56087473      -1.24776263      -1.52985946
H       -4.20982091      -2.97183522      -1.85087235
H       -4.09767534      -1.76345353      -3.17849819
H        0.22714197      -8.00725120      -7.28077247
H       -4.38911322      -6.66436898      -6.45494775
H       -4.92126059      -8.33683701      -6.78939609
H       -4.81426508      -7.13946873      -8.12380749
C       -0.87474216       0.87474216       0.87474216
C       -2.16467487       0.50734981       1.28944179
C       -2.59490217       1.56941260       2.05401662
N       -1.56604979       2.47630329       2.04729750
N       -0.49936101       2.07006609       1.32919880
C       -1.53392209       3.75864412       2.71030030
C       -3.84015594       1.71719137       2.72117384
C       -4.89044092       1.84886560       3.28890390
C       -6.22470840       2.02747301       4.01805436
C       -7.26590496       2.18001564       4.59584845
C       -8.49410136       2.37031467       5.28463810
C       -9.56698890       1.50725133       5.34039521
C      -10.50726161       2.16955361       6.14346555
N      -10.08518476       3.35821478       6.57258406
N       -8.85116905       3.46116964       6.03521400
C       -8.08043950       4.65305439       6.29935373
Br     -12.19123442       1.45798724       6.57399357
H       -2.70687929      -0.40003368       1.06613138
H       -0.57651100       4.24827857       2.51370725
H       -1.65271135       3.59551615       3.78430099
H       -2.35005470       4.37085051       2.31872185
H       -9.65348849       0.53949672       4.86789649
H       -7.11167565       4.59742012       5.79933418
H       -7.93419692       4.73375453       7.37954224
H       -8.64049361       5.51327958       5.92376811
C        0.87474216      -0.87474216       0.87474216
C        1.93834387      -0.37823998       1.64488261
C        2.45472914      -1.48968420       2.27391805
N        1.69025474      -2.54734286       1.85205299
N        0.71379672      -2.19251053       0.99231864
C        1.83745416      -3.93231132       2.23310102
C        3.54982672      -1.55231715       3.17637728
C        4.47417652      -1.61303597       3.94099792
C        5.64963899      -1.70284221       4.91775457
C        6.56835961      -1.78755186       5.68585759
C        7.65316580      -1.89905683       6.59683150
C        8.46067766      -0.88641943       7.06753836
C        9.36117066      -1.52933786       7.92977225
N        9.15895559      -2.84361330       8.01341471
N        8.10930576      -3.04849471       7.18975222
C        7.60689963      -4.39289646       7.03305152
Br      10.71579224      -0.63390776       8.87351523
H        2.28258438       0.64206716       1.73245977
H        1.07829573      -4.53387748       1.72632361
H        1.70841165      -4.00854873       3.31556810
H        2.83429736      -4.26826822       1.93706148
H        8.40363003       0.16399606       6.82124773
H        6.76539206      -4.40520690       6.33783098
H        7.28184499      -4.75319302       8.01245568
H        8.41539529      -5.01752907       6.64461694
