130
Properties=species:S:1:pos:R:3 pbc="F F F"
C        1.78464618       1.78464618      -1.78464618
C        1.54658850       3.15256500      -1.99202505
C        2.55989445       3.55339294      -2.83475608
N        3.31561537       2.43338835      -3.07035893
N        2.85767935       1.33552626      -2.43513236
C        4.49615987       2.33987959      -3.89653912
C        2.79452441       4.85101616      -3.36269265
C        2.99997473       5.94578657      -3.81216119
C        3.27299568       7.33698344      -4.38996873
C        3.49969280       8.42289361      -4.84889471
C        3.77808443       9.70420801      -5.39647377
C        3.07037443      10.87077036      -5.20320274
C        3.76218906      11.82883840      -5.95896539
N        4.82561158      11.33124526      -6.58883883
N        4.81656281      10.02969371      -6.23100824
C        5.85399508       9.16583254      -6.74273207
H        0.75233827       3.76298640      -1.58736440
H        4.87012542       1.31272258      -3.88536089
H        5.25499642       3.01459416      -3.49264998
H        4.22763704       2.62495092      -4.91675117
H        2.18306047      11.00577397      -4.60175932
H        5.71611464       8.14747596      -6.37455142
H        6.81897953       9.55279490      -6.40543134
H        5.79892688       9.17398389      -7.83434261
C        3.36722833      13.21077295      -6.04763843
C        3.03644872      14.36814314      -6.12190211
Br       2.50160606      16.23951285      -6.24198018
C       -1.78464618      -1.78464618      -1.78464618
C       -1.27385487      -2.74302542      -2.67429825
C       -2.39084516      -3.30025086      -3.25694745
N       -3.46517412      -2.65853338      -2.69565516
N       -3.11600774      -1.72379831      -1.78853192
C       -4.86161569      -2.89021857      -2.98074432
C       -2.44423173      -4.32725994      -4.23674156
C       -2.49740435      -5.19604093      -5.06447721
C       -2.57800327      -6.30370250      -6.11824208
C       -2.65591104      -7.17233542      -6.94323466
C       -2.75973743      -8.20059799      -7.91843078
C       -1.73117367      -8.89083113      -8.52234273
C       -2.37309484      -9.78398059      -9.39291742
N       -3.70134016      -9.68463696      -9.35971856
N       -3.91637637      -8.70976512      -8.45112328
C       -5.27746792      -8.33025948      -8.15483229
H       -0.24105145      -2.99524576      -2.86639186
H       -5.47516695      -2.21931620      -2.37372574
H       -5.09646689      -3.92917751      -2.73659616
H       -5.03536421      -2.69259051      -4.04138441
H       -0.67134086      -8.76443626      -8.35481664
H       -5.29568508      -7.53224788      -7.41020906
H       -5.80112887      -9.20818886      -7.76788804
H       -5.74509279      -7.98258036      -9.07958023
C       -1.67202378     -10.71556023     -10.23805571
C       -1.08487676     -11.49575819     -10.94585902
Br      -0.13550969     -12.75727229     -12.09031711
C       -1.78464618       1.78464618       1.78464618
C       -3.07081303       1.41309968       2.20726583
C       -3.50247280       2.47674943       2.96882124
N       -2.47801956       3.38849150       2.95285160
N       -1.41283241       2.98390882       2.23159674
C       -2.44887408       4.67413169       3.60957280
C       -4.74522577       2.62178442       3.64122303
C       -5.79341121       2.75116840       4.21334288
C       -7.12502802       2.92690394       4.94801588
C       -8.16417723       3.07724736       5.53005654
C       -9.38997376       3.26498656       6.22380588
C      -10.45843733       2.39709581       6.28881439
C      -11.39803269       3.05874730       7.09321287
N      -10.97961315       4.25144855       7.51463398
N       -9.74868022       4.35770951       6.97087503
C       -8.98241780       5.55450603       7.22563586
H       -3.60972356       0.50208280       1.99088270
H       -1.49476710       5.16737709       3.40606470
H       -2.56175984       4.51558521       4.68489550
H       -3.26978682       5.28055832       3.21899399
H      -10.54255209       1.42668790       5.82135378
H       -8.01579306       5.50109600       6.72125296
H       -8.83141610       5.64107507       8.30471460
H       -9.54836954       6.41024306       6.84864077
C      -12.68493910       2.50861973       7.43208088
C      -13.76272323       2.04788789       7.71588284
Br     -15.50540900       1.30292348       8.17476661
C        1.78464618      -1.78464618       1.78464618
C        2.82116494      -1.28259146       2.58742214
C        3.34786532      -2.39616881       3.20400934
N        2.61502554      -3.46030962       2.74402750
N        1.64936307      -3.10768532       1.87128958
C        2.78369104      -4.84970511       3.09918244
C        4.42500686      -2.45516057       4.12806580
C        5.33430754      -2.51286359       4.91075136
C        6.49080853      -2.59892313       5.91021619
C        7.39492047      -2.68079772       6.69576294
C        8.46263772      -2.78903544       7.62709304
C        9.23843622      -1.77003853       8.13587277
C       10.13424546      -2.41225709       9.00349030
N        9.95834373      -3.73194263       9.05540932
N        8.93068043      -3.94107636       8.20550798
C        8.46036948      -5.29201519       8.01017502
H        3.14171703      -0.25742804       2.70354400
H        2.04822890      -5.45603811       2.56394189
H        2.63377441      -4.95163108       4.17683506
H        3.79340897      -5.15844399       2.81748617
H        9.16419375      -0.71603675       7.91036326
H        7.63398229      -5.30705975       7.29709998
H        8.12271949      -5.67976523       8.97472104
H        9.28989121      -5.89125997       7.62610219
C       11.14270478      -1.71978175       9.76315319
C       11.98728946      -1.13983365      10.39937085
Br      13.35291146      -0.20210662      11.42808101
C       -0.00445707       0.01189536      -1.78238275
H       -0.66409135       0.67374010      -2.43557963
H        0.65740317      -0.63156657      -2.45157240
C       -0.90989263      -0.90692880      -0.91072765
C        0.90977584       0.90977584      -0.90977584
C       -0.00465871       1.77757030       0.00794375
H       -0.66225468       2.44313916      -0.64384735
H        0.64322798       2.43503045       0.67728295
C       -1.78241447       0.00034974      -0.00472694
H       -2.45427497      -0.65498947       0.64260836
H       -2.43311707       0.67328779      -0.65473579
C       -0.91132561       0.90220522       0.91563759
C       -0.01476271      -0.02253852       1.78660255
H       -0.67934791      -0.69751639       2.42135241
H        0.63392994       0.61504881       2.47327442
C        0.01484550      -1.77751727      -0.01636693
H        0.67870853      -2.42144646      -0.68295456
H       -0.62264859      -2.45592969       0.64226336
C        1.78714474       0.01002794       0.00389507
H        2.44202412       0.67113390       0.66197326
H        2.45385902      -0.65136977      -0.64189061
C        0.91606151      -0.90478549       0.90901405
