53
Properties=species:S:1:pos:R:3 pbc="F F F"
C        0.00000000       0.00000000       0.00000000
C        0.91103772       0.91103772      -0.91103772
N        2.18409683       0.29160106      -1.21508500
N        2.42029518      -0.20015657      -2.45316377
C        3.67293202      -0.66407571      -2.37601363
C        4.22946426      -0.44675625      -1.11036007
C        3.25996858       0.18101095      -0.37543896
H        1.09578634       1.84602819      -0.37612767
H        0.36917618       1.10883562      -1.83901155
H        4.11567993      -1.13168995      -3.24578696
H        3.23394097       0.53863618       0.64415813
C        5.55882135      -0.81849345      -0.70021232
C        6.67215791      -1.12982336      -0.35671358
Br       8.47232897      -1.63321748       0.19869483
C       -0.91103772      -0.91103772      -0.91103772
N       -2.16236046      -0.27029757      -1.25812485
N       -2.35929980       0.19804564      -2.51204823
C       -3.60235531       0.69165518      -2.47416980
C       -4.19204580       0.51606097      -1.21708325
C       -3.25400607      -0.11627421      -0.44613820
H       -1.12921414      -1.82909186      -0.35963620
H       -0.35314608      -1.14225158      -1.82162568
H       -4.01457120       1.14897931      -3.36418506
H       -3.25913351      -0.45085419       0.58156867
C       -5.52138657       0.92691792      -0.84607156
C       -6.63470947       1.27101061      -0.53534927
Br      -8.43485844       1.82737939      -0.03293761
C       -0.91103772       0.91103772       0.91103772
N       -0.85839636       2.30605018       0.52633635
N       -1.90882553       2.87406999      -0.10959315
C       -1.52469351       4.14387406      -0.28369764
C       -0.25560612       4.38058662       0.25687534
C        0.15686465       3.18727027       0.78601287
H       -0.55803894       0.81865877       1.94124449
H       -1.93837573       0.54766248       0.83098515
H       -2.19010754       4.83040769      -0.79073828
H        1.06047967       2.88987048       1.29902821
C        0.44328231       5.63955289       0.24426964
C        1.02860137       6.69393713       0.23371237
Br       1.97501278       8.39878729       0.21664215
C        0.91103772      -0.91103772       0.91103772
N        0.56247186      -2.31322232       0.81508871
N        1.36619488      -3.16698288       0.14012462
C        0.75723227      -4.35047676       0.27716091
C       -0.40554414      -4.24911028       1.04950193
C       -0.51187322      -2.92966718       1.39862452
H        0.78205186      -0.58858342       1.94730692
H        1.94856187      -0.76947795       0.59898352
H        1.19395807      -5.22432817      -0.18850930
H       -1.24046465      -2.38583456       1.98304911
C       -1.28647463      -5.33573234       1.39128251
C       -2.02425392      -6.24577831       1.67752375
Br      -3.21718063      -7.71724568       2.14035161
