106
Properties=species:S:1:pos:R:3 pbc="F F F"
C        1.77673014       1.77673014      -1.77673014
C        1.41308248       2.32023197      -3.01483254
N        2.40139129       3.05101000      -3.54523162
N        3.39086542       2.95366109      -2.63075922
C        3.05807709       2.19732040      -1.54367603
C        4.65402454       3.62421069      -2.87071693
C        5.36504218       3.09939291      -4.10794634
N        5.71624589       1.69696319      -3.99289668
N        6.55565752       1.29916064      -3.01253269
C        6.64195968      -0.02445802      -3.19378410
C        5.87239143      -0.45102234      -4.28238600
C        5.28201983       0.67557797      -4.78890789
Br       5.71098419      -2.20850714      -4.88322326
H        0.48107477       2.22195795      -3.55600858
H        3.74739785       2.02291441      -0.72919660
H        5.27130160       3.51155074      -1.97205574
H        4.42748936       4.69038475      -2.98539552
H        6.30150384       3.64532410      -4.26944282
H        4.75080046       3.22029194      -5.00751737
H        7.25992307      -0.60929503      -2.52468199
H        4.60357327       0.83609677      -5.61483728
C       -1.77673014      -1.77673014      -1.77673014
C       -1.35028796      -2.50173026      -2.89612878
N       -2.35676662      -3.18059762      -3.46026867
N       -3.41985294      -2.86762004      -2.68781275
C       -3.11707558      -2.02576036      -1.65623758
C       -4.72154078      -3.42240091      -3.00501047
C       -5.22668456      -2.97740814      -4.36828872
N       -5.41627087      -1.54176159      -4.44807330
N       -6.30207493      -0.94047617      -3.62479976
C       -6.20788354       0.35310881      -3.95651104
C       -5.27979733       0.55977788      -4.98373564
C       -4.77875740      -0.67668475      -5.29106353
Br      -4.84361204       2.20418802      -5.74627629
H       -0.36045324      -2.57039430      -3.32819376
H       -3.86389545      -1.68111371      -0.95449969
H       -5.41378088      -3.13627257      -2.20485463
H       -4.61441145      -4.51276042      -2.97609775
H       -6.19936942      -3.43488913      -4.58201220
H       -4.53833696      -3.27145034      -5.16882247
H       -6.81907488       1.07754622      -3.43378136
H       -4.03975932      -1.00783982      -6.00690818
C       -1.77673014       1.77673014       1.77673014
C       -2.80457460       2.61520420       1.32836819
N       -3.39670104       3.25938452       2.34154736
N       -2.72451443       2.82213130       3.42864000
C       -1.73970980       1.92230336       3.13706037
C       -3.08702565       3.32074979       4.74117672
C       -2.88040419       4.82151974       4.87045749
N       -1.49147310       5.20622656       4.70840611
N       -0.56482599       4.73306424       5.56946062
C        0.57827934       5.26739425       5.12217085
C        0.36939404       6.07499004       3.99815909
C       -0.97524688       6.02578773       3.74547108
Br       1.68608497       7.00761799       3.06416730
H       -3.15182938       2.78898358       0.31822834
H       -1.11182942       1.48611634       3.90156310
H       -2.50263246       2.76720122       5.48507440
H       -4.14234995       3.06728588       4.89363380
H       -3.18698221       5.16391510       5.86537344
H       -3.47172922       5.37485910       4.13202145
H        1.50315753       5.04138716       5.63708040
H       -1.59201603       6.47973880       2.98275249
C        1.77673014      -1.77673014       1.77673014
C        2.39078355      -2.97251410       1.38484935
N        3.10138870      -3.51493320       2.38131102
N        2.92019416      -2.65113158       3.40396000
C        2.13062226      -1.58381963       3.08463163
C        3.54570090      -2.91868919       4.68456207
C        3.04705871      -4.20827706       5.31704566
N        1.62700336      -4.16989391       5.60920849
N        1.14944971      -3.24653294       6.47136819
C       -0.16712611      -3.48850599       6.48990587
C       -0.51045803      -4.55865884       5.65555428
C        0.66231512      -4.98886544       5.09532513
Br      -2.23040550      -5.22695537       5.38915044
H        2.35739938      -3.47479446       0.42684746
H        1.89000260      -0.80959139       3.79991487
H        3.36601773      -2.05452333       5.33436702
H        4.62475546      -2.97685713       4.50165704
H        3.55876082      -4.38815867       6.26935127
H        3.23487482      -5.07313212       4.67060282
H       -0.80772778      -2.87387913       7.10915867
H        0.88912198      -5.77561219       4.38977315
C       -0.00445707       0.01189536      -1.78238275
H       -0.66409135       0.67374010      -2.43557963
H        0.65740317      -0.63156657      -2.45157240
C       -0.90989263      -0.90692880      -0.91072765
C        0.90977584       0.90977584      -0.90977584
C       -0.00465871       1.77757030       0.00794375
H       -0.66225468       2.44313916      -0.64384735
H        0.64322798       2.43503045       0.67728295
C       -1.78241447       0.00034974      -0.00472694
H       -2.45427497      -0.65498947       0.64260836
H       -2.43311707       0.67328779      -0.65473579
C       -0.91132561       0.90220522       0.91563759
C       -0.01476271      -0.02253852       1.78660255
H       -0.67934791      -0.69751639       2.42135241
H        0.63392994       0.61504881       2.47327442
C        0.01484550      -1.77751727      -0.01636693
H        0.67870853      -2.42144646      -0.68295456
H       -0.62264859      -2.45592969       0.64226336
C        1.78714474       0.01002794       0.00389507
H        2.44202412       0.67113390       0.66197326
H        2.45385902      -0.65136977      -0.64189061
C        0.91606151      -0.90478549       0.90901405
