122
Properties=species:S:1:pos:R:3 pbc="F F F"
C        1.74795697       1.74795697      -1.74795697
C        3.04830237       1.39679897      -2.28716961
N        3.43184170       2.20099506      -3.23680179
N        2.48833561       3.20497440      -3.36754401
C        1.35286653       2.83570964      -2.56337844
H        0.35956346       3.25326659      -2.62864447
C        2.21166726       3.79912030      -4.67367258
C        1.49422959       5.07757289      -4.55536909
C        0.90386449       6.11370960      -4.41618050
C        0.15082130       7.42240929      -4.17495304
C       -0.43352424       8.44249949      -3.92828383
C       -1.13424792       9.68186994      -3.57696994
N       -1.39379023       9.78604650      -2.14415867
N       -2.66563941       9.87100958      -1.68733294
C       -2.51955586       9.96004962      -0.36021400
C       -1.17173375       9.95049015       0.01655956
C       -0.45685041       9.85056390      -1.14620397
Br      -0.52650745      10.05620635       1.76287286
H        3.58906993       0.50560236      -1.94282238
H        1.64581282       3.09919503      -5.30030980
H        3.16269829       3.98487532      -5.18757217
H       -2.09643121       9.74527803      -4.09664284
H       -0.54273468      10.56245115      -3.84961927
H       -3.40166530      10.02954890       0.26274135
H        0.60350556       9.80544045      -1.35060232
C       -1.74795697      -1.74795697      -1.74795697
C       -2.00128546      -3.16489383      -1.56609167
N       -3.01247836      -3.58835805      -2.26880213
N       -3.47499669      -2.54041666      -3.04544067
C       -2.80412511      -1.34677460      -2.60105490
H       -3.10126905      -0.33024665      -2.80995882
C       -4.89613672      -2.42325635      -3.36506707
C       -5.13303211      -1.50492639      -4.48921306
C       -5.28442536      -0.74391474      -5.40541449
C       -5.41335488       0.23667881      -6.57150756
C       -5.45657279       1.00944043      -7.49012671
C       -5.45757393       1.94901689      -8.61603492
N       -4.12827736       2.48504301      -8.89318059
N       -3.90058586       3.81719603      -8.80931329
C       -2.60735162       3.93772121      -9.13107734
C       -2.02884570       2.69963570      -9.43298683
C       -3.02565895       1.77321668      -9.28747519
Br      -0.25394824       2.41713627      -9.93001407
H       -1.41586710      -3.76463894      -0.85698863
H       -5.46163210      -2.10147228      -2.48221328
H       -5.28011654      -3.41252035      -3.64250889
H       -6.12426114       2.79484160      -8.41607011
H       -5.79393506       1.46247112      -9.53787181
H       -2.15455100       4.92057022      -9.13116147
H       -3.04917127       0.69962247      -9.40999952
C       -1.74795697       1.74795697       1.74795697
C       -1.77083090       3.19854792       1.76289214
N       -2.81355512       3.67790203       2.37818139
N       -3.53493252       2.62087707       2.90504443
C       -2.97257138       1.40784276       2.37154047
H       -3.43678561       0.43328154       2.37140737
C       -4.99135464       2.69057798       3.00252752
C       -5.53016981       1.67603405       3.92096771
C       -5.93031110       0.83019482       4.67324867
C       -6.37893806      -0.26833250       5.63757806
C       -6.67536682      -1.14336689       6.40525914
C       -6.98685197      -2.21681445       7.35455444
N       -5.80617979      -2.99246993       7.72270507
N       -5.75397460      -4.31941847       7.45814699
C       -4.55838856      -4.68935865       7.93167785
C       -3.87068615      -3.61394097       8.50545165
C       -4.69369990      -2.52832022       8.37453778
Br      -2.17691111      -3.69155549       9.28147042
H       -1.00202723       3.78847972       1.24698772
H       -5.44659320       2.58874335       2.00998111
H       -5.27470901       3.68081386       3.37962291
H       -7.72299322      -2.90876638       6.93126281
H       -7.39654754      -1.81445211       8.28724031
H       -4.25147294      -5.72267086       7.83634016
H       -4.58823965      -1.49220106       8.66350973
C        1.74795697      -1.74795697       1.74795697
C        2.99981134      -1.36133176       2.37112786
N        3.37722498      -2.19400638       3.29840718
N        2.48212894      -3.24904031       3.32968477
C        1.37024005      -2.89509053       2.48662404
H        0.39809249      -3.36427815       2.47910388
C        2.17238231      -3.92360614       4.58847169
C        1.52946763      -5.22816792       4.36953602
C        1.00167350      -6.28364501       4.14843608
C        0.33092781      -7.61372123       3.80353458
C       -0.18636541      -8.64728003       3.47634446
C       -0.80308470      -9.89985935       3.02781731
N       -0.98538645      -9.94179973       1.58000166
N       -2.22681411     -10.06581140       1.05370582
C       -2.01058178     -10.07804092      -0.26675139
C       -0.64806045      -9.98191909      -0.57166181
C        0.00202551      -9.90750811       0.63038383
Br       0.08769657      -9.96410601      -2.28497653
H        3.50971078      -0.42762044       2.10016346
H        1.54032973      -3.28632417       5.21866376
H        3.10513486      -4.08851542       5.14149550
H       -1.78525024     -10.03801191       3.49272798
H       -0.18064264     -10.76303185       3.28694653
H       -2.85584423     -10.15860413      -0.93761766
H        1.04712129      -9.82054429       0.89188274
C       -0.00445707       0.01189536      -1.78238275
H       -0.66409135       0.67374010      -2.43557963
H        0.65740317      -0.63156657      -2.45157240
C       -0.90989263      -0.90692880      -0.91072765
C        0.90977584       0.90977584      -0.90977584
C       -0.00465871       1.77757030       0.00794375
H       -0.66225468       2.44313916      -0.64384735
H        0.64322798       2.43503045       0.67728295
C       -1.78241447       0.00034974      -0.00472694
H       -2.45427497      -0.65498947       0.64260836
H       -2.43311707       0.67328779      -0.65473579
C       -0.91132561       0.90220522       0.91563759
C       -0.01476271      -0.02253852       1.78660255
H       -0.67934791      -0.69751639       2.42135241
H        0.63392994       0.61504881       2.47327442
C        0.01484550      -1.77751727      -0.01636693
H        0.67870853      -2.42144646      -0.68295456
H       -0.62264859      -2.45592969       0.64226336
C        1.78714474       0.01002794       0.00389507
H        2.44202412       0.67113390       0.66197326
H        2.45385902      -0.65136977      -0.64189061
C        0.91606151      -0.90478549       0.90901405
