109
Properties=species:S:1:pos:R:3 pbc="F F F"
C        0.00000000       0.00000000       0.00000000
C        0.83805295       0.83805295      -0.83805295
C        2.13839835       0.48689495      -1.37726559
N        2.52193767       1.29109103      -2.32689776
N        1.57843158       2.29507037      -2.45763999
C        0.44296250       1.92580562      -1.65347442
H       -0.55034057       2.34336256      -1.71874045
C        1.30176324       2.88921627      -3.76376856
C        0.58432556       4.16766887      -3.64546506
C       -0.00603954       5.20380558      -3.50627648
C       -0.75908272       6.51250526      -3.26504901
C       -1.34342827       7.53259547      -3.01837981
C       -2.04415194       8.77196591      -2.66706591
N       -2.30369426       8.87614247      -1.23425465
N       -3.57554344       8.96110556      -0.77742892
C       -3.42945989       9.05014559       0.54969002
C       -2.08163777       9.04058612       0.92646359
C       -1.36675443       8.94065987      -0.23629994
H        2.67916591      -0.40430167      -1.03291836
H        0.73590880       2.18929101      -4.39040578
H        2.25279426       3.07497130      -4.27766815
H       -3.00633524       8.83537401      -3.18673881
H       -1.45263871       9.65254713      -2.93971525
H       -4.31156933       9.11964488       1.17264537
H       -0.30639847       8.89553642      -0.44069829
C       -1.58336659       9.12222467       2.27504098
C       -1.16606447       9.19059695       3.40447454
Br      -0.49132223       9.30114915       5.23067308
C       -0.83805295      -0.83805295      -0.83805295
C       -0.58594064      -2.22148947      -1.19512878
N       -1.63410624      -2.80969899      -1.69612123
N       -2.64908498      -1.87542048      -1.80663648
C       -2.21808871      -0.68816379      -1.11599004
H       -2.84635121       0.12837480      -0.79378603
C       -4.04545642      -2.27175284      -1.63753881
C       -4.97226212      -1.25931258      -2.16588479
C       -5.69502094      -0.40604942      -2.60297215
C       -6.56302504       0.71670081      -3.17214732
C       -7.19633058       1.62552662      -3.63674304
C       -7.92539347       2.75435603      -4.22384244
N       -7.03800035       3.84574308      -4.61444560
N       -7.17878926       5.07075902      -4.05496080
C       -6.22482194       5.79967216      -4.64584590
C       -5.50184460       5.05034848      -5.58098864
C       -6.04628253       3.79489702      -5.55881988
H        0.38221693      -2.69769317      -0.99230636
H       -4.26068633      -2.47363771      -0.58128154
H       -4.21604155      -3.21005759      -2.17933457
H       -8.65715409       3.15584697      -3.51447045
H       -8.46168215       2.45167568      -5.12961719
H       -6.10749382       6.83851430      -4.36645066
H       -5.81688415       2.88913244      -6.10208454
C       -4.41166973       5.53513159      -6.38727897
C       -3.49864827       5.94113744      -7.06254712
Br      -2.02236980       6.59761456      -8.15439860
C       -0.83805295       0.83805295       0.83805295
C       -0.87771118       2.28835814       0.83648956
N       -1.91878831       2.76279091       1.45834725
N       -2.62162095       1.70373205       2.00578895
C       -2.05131879       0.49112307       1.47980069
H       -2.50407746      -0.48867278       1.49635776
C       -4.07753460       1.75773193       2.11948153
C       -4.59380105       0.74783641       3.05582204
C       -4.97530504      -0.09371730       3.82245478
C       -5.39988321      -1.18600606       4.80459440
C       -5.67716938      -2.05537236       5.58574998
C       -5.96509124      -3.12117563       6.55096427
N       -4.77125523      -3.87877733       6.91422497
N       -4.70660011      -5.20803640       6.66442734
C       -3.50137794      -5.55857319       7.12819094
C       -2.81971111      -4.46864487       7.68141851
C       -3.65681942      -3.39421272       7.54759869
H       -0.12187089       2.88106317       0.30484854
H       -4.54299153       1.63904539       1.13356866
H       -4.36807035       2.74896829       2.48839507
H       -6.69793469      -3.82649041       6.14433330
H       -6.36865706      -2.71269760       7.48366421
H       -3.18352432      -6.58931351       7.04121938
H       -3.56014795      -2.35363621       7.82332451
C       -1.50425638      -4.50645125       8.26601198
C       -0.40256304      -4.53811410       8.75560900
Br       1.37878191      -4.58931024       9.54724599
C        0.83805295      -0.83805295       0.83805295
C        2.09701345      -0.45595405       1.44959139
N        2.47512347      -1.28471903       2.38008397
N        1.57283760      -2.33310673       2.42519761
C        0.45750495      -1.97721858       1.58751901
H       -0.51796369      -2.43951518       1.59021095
C        1.26729948      -2.99653580       3.69091278
C        0.61363726      -4.29800268       3.48581956
C        0.07683505      -5.35123221       3.27597526
C       -0.60573386      -6.67890452       2.94530090
C       -1.13263601      -7.71104152       2.62914149
C       -1.76137115      -8.96233790       2.19391313
N       -1.95426696      -9.01321232       0.74775751
N       -3.20025534      -9.13210035       0.23114604
C       -2.99352048      -9.15520226      -1.09068610
C       -1.63255888      -9.07094012      -1.40589648
C       -0.97342248      -8.99266406      -0.20903619
H        2.61155824       0.47216507       1.16838943
H        0.64426960      -2.35033188       4.32100411
H        2.20277633      -3.16416784       4.23848954
H       -2.74115417      -9.09020539       2.66672636
H       -1.14321706      -9.82806637       2.45477436
H       -3.84408565      -9.23448616      -1.75497034
H        0.07409699      -8.91129607       0.04444319
C       -1.07372629      -9.07058192      -2.73303852
C       -0.60570400      -9.07028193      -3.84451999
Br       0.15104847      -9.06979687      -5.64169151
