130
Properties=species:S:1:pos:R:3 pbc="F F F"
C        1.74795697       1.74795697      -1.74795697
C        3.04830237       1.39679897      -2.28716961
N        3.43184170       2.20099506      -3.23680179
N        2.48833561       3.20497440      -3.36754401
C        1.35286653       2.83570964      -2.56337844
H        0.35956346       3.25326659      -2.62864447
C        2.21166726       3.79912030      -4.67367258
C        1.49422959       5.07757289      -4.55536909
C        0.90386449       6.11370960      -4.41618050
C        0.15082130       7.42240929      -4.17495304
C       -0.43352424       8.44249949      -3.92828383
C       -1.13424792       9.68186994      -3.57696994
N       -1.39379023       9.78604650      -2.14415867
N       -2.66563941       9.87100958      -1.68733294
C       -2.51955586       9.96004962      -0.36021400
C       -1.17173375       9.95049015       0.01655956
C       -0.45685041       9.85056390      -1.14620397
H        3.58906993       0.50560236      -1.94282238
H        1.64581282       3.09919503      -5.30030980
H        3.16269829       3.98487532      -5.18757217
H       -2.09643121       9.74527803      -4.09664284
H       -0.54273468      10.56245115      -3.84961927
H       -3.40166530      10.02954890       0.26274135
H        0.60350556       9.80544045      -1.35060232
C       -0.67346256      10.03212869       1.36513695
C       -0.25616044      10.10050098       2.49457051
Br       0.41858179      10.21105318       4.32076906
C       -1.74795697      -1.74795697      -1.74795697
C       -3.06543656      -1.41234654      -2.25448786
N       -3.45204468      -2.20529500      -3.21229887
N       -2.49186230      -3.18748076      -3.38151095
C       -1.34800822      -2.81142999      -2.59251640
H       -0.34822194      -3.20771022      -2.68554236
C       -2.22975238      -3.75029771      -4.70441005
C       -1.48520303      -5.01623969      -4.62572885
C       -0.87200360      -6.04290701      -4.51884398
C       -0.08881577      -7.34077987      -4.31858799
C        0.52019862      -8.35363144      -4.10382625
C        1.25192841      -9.58540226      -3.79111811
N        1.54202111      -9.71240709      -2.36602896
N        2.82415879      -9.78088279      -1.93597912
C        2.70637732      -9.89878783      -0.60829725
C        1.36641913      -9.92352379      -0.20509218
C        0.62663938      -9.81514752      -1.35140932
H       -3.61656428      -0.53903897      -1.88189142
H       -1.69033609      -3.02707801      -5.32790356
H       -3.18703693      -3.94491031      -5.20319855
H        2.20459927      -9.61939710      -4.33069182
H        0.67244212     -10.47211321      -4.06966466
H        3.60194244      -9.96284115      -0.00424354
H       -0.43826700      -9.78721458      -1.53406675
C        0.89687137     -10.04148331       1.15108276
C        0.50362513     -10.14027441       2.28687926
Br      -0.13222079     -10.30001127       4.12336615
C       -1.74795697       1.74795697       1.74795697
C       -1.66283773       1.87907433       3.19035890
N       -2.31989701       2.90927312       3.64046841
N       -2.97247716       3.51015024       2.57822662
C       -2.48443819       2.89668833       1.37082810
H       -2.58764563       3.28493681       0.36889208
C       -3.17440724       4.95725228       2.55280062
C       -4.19973453       5.35228861       1.57514843
C       -5.03749855       5.63376233       0.76249371
C       -6.10755660       5.92953812      -0.28891109
C       -6.95486311       6.10456893      -1.12217296
C       -7.99786461       6.26687769      -2.14015034
N       -8.32938563       5.00816697      -2.80113767
N       -8.15532818       4.87470109      -4.13732616
C       -8.56209978       3.62436907      -4.38576110
C       -9.00555557       2.98121005      -3.22456879
C       -8.86130184       3.89091061      -2.21229500
H       -1.05032847       1.19502385       3.79214236
H       -2.22861390       5.47197667       2.34472709
H       -3.50144512       5.28735168       3.54634897
H       -7.68085991       6.97659105      -2.91196131
H       -8.92828421       6.63935352      -1.69830199
H       -8.51656462       3.24783071      -5.39925308
H       -9.06814123       3.84390154      -1.15249445
C       -9.50718903       1.63362303      -3.14728287
C       -9.92730704       0.50501890      -3.08255592
Br     -10.60660234      -1.31983851      -2.97789792
C        1.74795697      -1.74795697       1.74795697
C        1.93374897      -1.61758080       3.18094119
N        2.48718415      -2.66928109       3.71317330
N        2.80386533      -3.55710440       2.69988429
C        2.19216820      -3.06760463       1.49218178
H        2.02596010      -3.62976343       0.58575098
C        2.75306189      -4.99892554       2.93247271
C        3.48081438      -5.74884707       1.89751011
C        4.07952523      -6.32401811       1.03021126
C        4.85215018      -6.99936432      -0.10333087
C        5.47363382      -7.47711956      -1.01349430
C        6.24904802      -8.01262312      -2.13707918
N        6.64561952      -6.97398450      -3.08318909
N        6.23134750      -7.03236430      -4.37100868
C        6.78205144      -5.94832863      -4.92967231
C        7.55038860      -5.22341863      -4.01161041
C        7.46321214      -5.90432973      -2.82762442
H        1.57707983      -0.73408168       3.72633316
H        1.71260279      -5.34043512       2.99227974
H        3.21348833      -5.21808524       3.90357222
H        5.66994314      -8.76243754      -2.68689103
H        7.17409706      -8.48565032      -1.79041164
H        6.59710240      -5.74420543      -5.97616558
H        7.88361828      -5.72426625      -1.84833620
C        8.27427951      -4.01038651      -4.29113685
C        8.88053815      -2.99447211      -4.52524024
Br       9.86080708      -1.35182445      -4.90376562
C       -0.00445707       0.01189536      -1.78238275
H       -0.66409135       0.67374010      -2.43557963
H        0.65740317      -0.63156657      -2.45157240
C       -0.90989263      -0.90692880      -0.91072765
C        0.90977584       0.90977584      -0.90977584
C       -0.00465871       1.77757030       0.00794375
H       -0.66225468       2.44313916      -0.64384735
H        0.64322798       2.43503045       0.67728295
C       -1.78241447       0.00034974      -0.00472694
H       -2.45427497      -0.65498947       0.64260836
H       -2.43311707       0.67328779      -0.65473579
C       -0.91132561       0.90220522       0.91563759
C       -0.01476271      -0.02253852       1.78660255
H       -0.67934791      -0.69751639       2.42135241
H        0.63392994       0.61504881       2.47327442
C        0.01484550      -1.77751727      -0.01636693
H        0.67870853      -2.42144646      -0.68295456
H       -0.62264859      -2.45592969       0.64226336
C        1.78714474       0.01002794       0.00389507
H        2.44202412       0.67113390       0.66197326
H        2.45385902      -0.65136977      -0.64189061
C        0.91606151      -0.90478549       0.90901405
