106
Properties=species:S:1:pos:R:3 pbc="F F F"
C        1.75898103       1.75898103      -1.75898103
C        1.25628531       2.58884935      -2.82156193
C        2.29763539       3.26316271      -3.31504565
N        3.44937105       2.88012596      -2.67447392
N        3.08455716       1.94603739      -1.55906527
C        4.67842170       3.68440034      -2.51434326
C        5.31440606       4.09614769      -3.86245851
N        6.56050367       4.86386642      -3.70577130
C        7.79242378       4.38636636      -3.34213658
C        8.73827800       5.25600803      -3.71610668
C        8.06321308       6.33324468      -4.39559590
N        6.72972950       6.12374107      -4.48772167
Br       8.92683523       7.75958029      -5.15933959
H        0.22919828       2.68105284      -3.11766201
H        2.31216302       4.02142836      -4.08017269
H        5.41372548       3.10845917      -1.93840984
H        4.44859696       4.58181223      -1.92702238
H        4.59070295       4.68936112      -4.43409114
H        5.51876002       3.19814596      -4.46070868
H        7.89656354       3.43300948      -2.84992926
H        9.79806947       5.16024701      -3.58044596
C       -1.75898103      -1.75898103      -1.75898103
C       -3.19724565      -1.75317539      -1.71627555
C       -3.61860178      -2.58792997      -2.66931200
N       -2.54252138      -3.17364227      -3.28780727
N       -1.28861591      -2.54762718      -2.75341673
C       -2.50171273      -3.71249580      -4.66295677
C       -3.52462365      -4.84763033      -4.90075828
N       -3.45889046      -5.41303019      -6.25822075
C       -2.50257577      -6.25389230      -6.76445863
C       -2.98460208      -6.88317289      -7.84261775
C       -4.34711069      -6.44109559      -8.00384739
N       -4.72782429      -5.58965484      -7.02371312
Br      -5.47383344      -7.06001759      -9.31190408
H       -3.80663852      -1.14848783      -1.07278677
H       -4.62644595      -2.80629364      -2.98102449
H       -1.49460682      -4.09565825      -4.87032942
H       -2.68379327      -2.89844487      -5.37519345
H       -4.53508735      -4.46470432      -4.71436354
H       -3.35856033      -5.64977381      -4.16928052
H       -1.53879127      -6.34951560      -6.29119541
H       -2.47968196      -7.60879549      -8.45028498
C       -1.75898103       1.75898103       1.75898103
C       -1.24760208       2.73956276       2.67953175
C       -2.30240924       3.36012699       3.21330753
N       -3.46315134       2.80460671       2.73621287
N       -3.10981095       1.79754684       1.68230203
C       -4.77935702       3.46751556       2.63029272
C       -5.32432927       3.95616730       3.99251569
N       -6.65325221       4.58163249       3.89525670
C       -7.85721945       3.95402781       3.70967945
C       -8.84929490       4.76448324       4.09661457
C       -8.22952335       5.96612969       4.59640063
N       -6.87872993       5.89479178       4.56767054
Br      -9.16160317       7.37634639       5.30780555
H       -0.21242253       2.95924197       2.85624862
H       -2.32375212       4.18961316       3.90039879
H       -5.50149776       2.76727822       2.19181851
H       -4.70158995       4.31613549       1.93970614
H       -4.61589112       4.67195299       4.42631110
H       -5.37578339       3.11052364       4.69130764
H       -7.90703023       2.94877038       3.32370167
H       -9.90126911       4.55500109       4.08249224
C        1.75898103      -1.75898103       1.75898103
C        3.19631966      -1.69402978       1.77634716
C        3.61364337      -2.55019254       2.71200784
N        2.53901478      -3.20356557       3.26139058
N        1.28249660      -2.60640818       2.70075504
C        2.46580415      -3.80029855       4.61106261
C        3.52470116      -4.90262041       4.84569069
N        3.42841619      -5.52611501       6.17561019
C        2.48843610      -6.42477098       6.60771963
C        2.95279863      -7.07858014       7.67901395
C        4.28824105      -6.58957888       7.91423374
N        4.67204275      -5.68363244       6.98551706
Br       5.38662700      -7.21687976       9.24224835
H        3.80524433      -1.03929319       1.18337560
H        4.61645225      -2.74093857       3.05637325
H        1.46802028      -4.23162154       4.76095267
H        2.58533812      -3.00993324       5.36216023
H        4.52501014      -4.47227127       4.71687380
H        3.42143061      -5.67965944       4.07652462
H        1.54910706      -6.53901923       6.09137599
H        2.45462796      -7.84839431       8.23574017
C       -0.00445707       0.01189536      -1.78238275
H       -0.66409135       0.67374010      -2.43557963
H        0.65740317      -0.63156657      -2.45157240
C       -0.90989263      -0.90692880      -0.91072765
C        0.90977584       0.90977584      -0.90977584
C       -0.00465871       1.77757030       0.00794375
H       -0.66225468       2.44313916      -0.64384735
H        0.64322798       2.43503045       0.67728295
C       -1.78241447       0.00034974      -0.00472694
H       -2.45427497      -0.65498947       0.64260836
H       -2.43311707       0.67328779      -0.65473579
C       -0.91132561       0.90220522       0.91563759
C       -0.01476271      -0.02253852       1.78660255
H       -0.67934791      -0.69751639       2.42135241
H        0.63392994       0.61504881       2.47327442
C        0.01484550      -1.77751727      -0.01636693
H        0.67870853      -2.42144646      -0.68295456
H       -0.62264859      -2.45592969       0.64226336
C        1.78714474       0.01002794       0.00389507
H        2.44202412       0.67113390       0.66197326
H        2.45385902      -0.65136977      -0.64189061
C        0.91606151      -0.90478549       0.90901405
