93
Properties=species:S:1:pos:R:3 pbc="F F F"
C        0.00000000       0.00000000       0.00000000
C        0.84907700       0.84907700      -0.84907700
C        0.34638129       1.67894533      -1.91165790
C        1.38773136       2.35325869      -2.40514163
N        2.53946702       1.97022193      -1.76456990
N        2.17465313       1.03613336      -0.64916125
C        3.76851767       2.77449632      -1.60443924
C        4.40450204       3.18624367      -2.95255448
N        5.65059965       3.95396240      -2.79586727
C        6.88251976       3.47646233      -2.43223255
C        7.82837398       4.34610400      -2.80620266
C        7.15330906       5.42334066      -3.48569188
N        5.81982548       5.21383705      -3.57781764
H       -0.68070575       1.77114881      -2.20775799
H        1.40225900       3.11152434      -3.17026867
H        4.50382146       2.19855514      -1.02850581
H        3.53869294       3.67190821      -1.01711836
H        3.68079893       3.77945709      -3.52418712
H        4.60885600       2.28824194      -3.55080466
H        6.98665951       2.52310546      -1.94002524
H        8.88816545       4.25034298      -2.67054193
C        7.83139591       6.54325106      -4.08535755
C        8.39929365       7.48117601      -4.58757755
Br       9.31753626       8.99772135      -5.39962482
C       -0.84907700      -0.84907700      -0.84907700
C       -2.27568376      -0.69916527      -0.96213549
C       -2.68992398      -1.58676349      -1.86944420
N       -1.62819850      -2.33726723      -2.30879313
N       -0.37202745      -1.78204238      -1.70587792
C       -1.51235073      -3.02235366      -3.61274884
C       -2.62352514      -4.07183018      -3.84794486
N       -2.48758849      -4.78369851      -5.12914231
C       -1.58271141      -5.76295890      -5.44554432
C       -2.02273144      -6.45482641      -6.50312279
C       -3.30765068      -5.90254073      -6.85215019
N       -3.68785054      -4.91768215      -6.00594748
H       -2.87603027       0.02751423      -0.44968502
H       -3.68037829      -1.73855803      -2.26511568
H       -0.53697482      -3.52151684      -3.67239075
H       -1.53580505      -2.27585661      -4.41605785
H       -3.60021310      -3.57483222      -3.80939781
H       -2.61650503      -4.80292086      -3.02847671
H       -0.68531247      -5.90018026      -4.86429747
H       -1.54224342      -7.28717229      -6.97963466
C       -4.13559966      -6.40802380      -7.91638106
C       -4.82900694      -6.83136587      -8.80767441
Br      -5.95018785      -7.51587419     -10.24882038
C       -0.84907700       0.84907700       0.84907700
C       -0.37555322       2.01559506       1.54583625
C       -1.43296863       2.56631824       2.14684481
N       -2.54893989       1.79832093       1.92699804
N       -2.18857361       0.69875874       0.97261541
C       -3.95248597       2.25990295       1.93506432
C       -4.38215535       2.87293511       3.28820972
N       -5.79138415       3.29747072       3.31157445
C       -6.90074083       2.49715272       3.39332109
C       -7.94451446       3.22000155       3.81616463
C       -7.45310770       4.55384949       4.05538440
N       -6.12248086       4.65615359       3.83284572
H        0.62877104       2.39279702       1.53417508
H       -1.48917670       3.47994920       2.71492611
H       -4.61180607       1.41324600       1.70583034
H       -4.09451654       2.99747159       1.13573138
H       -3.73921851       3.73233123       3.51289340
H       -4.21371755       2.14295923       4.09122581
H       -6.84839404       1.44739686       3.15399930
H       -8.94558333       2.87511707       3.98834996
C       -8.26420569       5.62742280       4.56837603
C       -8.94350026       6.52654044       4.99800652
Br     -10.04186213       7.98033762       5.69268268
C        0.84907700      -0.84907700       0.84907700
C        2.23690466      -0.58134387       1.11873599
C        2.65375402      -1.51427314       1.97810452
N        1.63741754      -2.39931957       2.23752175
N        0.39214931      -1.90346462       1.56433381
C        1.47237220      -3.22017940       3.45490163
C        2.65752993      -4.18185507       3.70391518
N        2.47736885      -5.02879045       4.89427002
C        1.65075461      -6.11369488       5.02676515
C        2.05963714      -6.86551854       6.05552496
C        3.24489734      -6.23594348       6.58150077
N        3.59967260      -5.14008372       5.87172386
H        2.80526143       0.24522996       0.73816958
H        3.61405778      -1.61388116       2.45611306
H        0.55099015      -3.81001437       3.36987789
H        1.34674079      -2.55954029       4.32143844
H        3.57849871      -3.59617322       3.80977120
H        2.79936757      -4.82409642       2.82443860
H        0.82878888      -6.27316484       4.34783648
H        1.62397241      -7.78217295       6.40290500
C        4.01867834      -6.76827157       7.67305460
C        4.66671993      -7.21409635       8.58723093
Br       5.71454838      -7.93495731      10.06537674
