85
Properties=species:S:1:pos:R:3 pbc="F F F"
C        0.00000000       0.00000000       0.00000000
C        0.84907700       0.84907700      -0.84907700
C        0.34638129       1.67894533      -1.91165790
C        1.38773136       2.35325869      -2.40514163
N        2.53946702       1.97022193      -1.76456990
N        2.17465313       1.03613336      -0.64916125
C        3.76851767       2.77449632      -1.60443924
C        4.40450204       3.18624367      -2.95255448
N        5.65059965       3.95396240      -2.79586727
C        6.88251976       3.47646233      -2.43223255
C        7.82837398       4.34610400      -2.80620266
C        7.15330906       5.42334066      -3.48569188
N        5.81982548       5.21383705      -3.57781764
Br       8.01693120       6.84967627      -4.24943557
H       -0.68070575       1.77114881      -2.20775799
H        1.40225900       3.11152434      -3.17026867
H        4.50382146       2.19855514      -1.02850581
H        3.53869294       3.67190821      -1.01711836
H        3.68079893       3.77945709      -3.52418712
H        4.60885600       2.28824194      -3.55080466
H        6.98665951       2.52310546      -1.94002524
H        8.88816545       4.25034298      -2.67054193
C       -0.84907700      -0.84907700      -0.84907700
C       -2.28752301      -0.83339649      -0.81606501
C       -2.70810909      -1.67170093      -1.76632166
N       -1.63188449      -2.26871197      -2.37366239
N       -0.37739628      -1.64749779      -1.83505368
C       -1.58552642      -2.81704272      -3.74488409
C       -2.61442463      -3.94690299      -3.98197256
N       -2.54343922      -4.52182635      -5.33516375
C       -1.58943580      -5.37242392      -5.82935492
C       -2.06847614      -6.00569885      -6.90650565
C       -3.42688192      -5.55563994      -7.07981972
N       -3.80839835      -4.69512104      -6.10796078
Br      -4.54898768      -6.17580169      -8.39125366
H       -2.89712023      -0.22035458      -0.18072624
H       -3.71529560      -1.88542786      -2.08332854
H       -0.57965466      -3.20829390      -3.94293385
H       -1.75738704      -2.00659449      -4.46373798
H       -3.62351577      -3.55600665      -3.80492072
H       -2.45862887      -4.74520839      -3.24406533
H       -0.62949131      -5.47129193      -5.34900696
H       -1.56439746      -6.73873349      -7.50591941
C       -0.84907700       0.84907700       0.84907700
C       -0.33710123       1.80524590       1.79463739
C       -1.39030581       2.43466213       2.32116374
N       -2.55189410       1.90706797       1.81529678
N       -2.19756889       0.91193030       0.75044856
C       -3.85481479       2.59398601       1.69865243
C       -4.41465393       3.06896368       3.05968257
N       -5.73106304       3.71852032       2.95084595
C       -6.94203822       3.11471542       2.73446100
C       -7.92684632       3.93535969       3.11847463
C       -7.29563719       5.11773193       3.64897247
N       -5.94593493       5.02388228       3.64166297
Br      -8.21594790       6.53150877       4.36858638
H        0.69845204       2.00426584       1.99238725
H       -1.40945343       3.25276534       3.02183323
H       -4.58100911       1.91359672       1.23627658
H       -3.75108881       3.45260710       1.02402360
H       -3.70181811       3.76520870       3.51741632
H       -4.49216441       2.21273226       3.74300592
H       -7.00209842       2.11705928       2.33063250
H       -8.98178875       3.74409632       3.08316528
C        0.84907700      -0.84907700       0.84907700
C        2.28532602      -0.76851248       0.88314602
C        2.70182878      -1.63038801       1.81391489
N        1.62855588      -2.30161661       2.34408636
N        0.37171659      -1.71212020       1.77611096
C        1.54714300      -2.91409714       3.68621309
C        2.61559219      -4.00724369       3.92046430
N        2.51162284      -4.64651670       5.24228978
C        1.57700106      -5.56021206       5.65400152
C        2.03679336      -6.22075014       6.72313714
C        3.36404414      -5.71973226       6.97856519
N        3.74793849      -4.79934195       6.06419973
Br       4.45466277      -6.34964543       8.31173484
H        2.89341643      -0.10055951       0.30422511
H        3.70284804      -1.81390828       2.16729568
H        0.55263057      -3.35801304       3.82023880
H        1.64960553      -2.13086935       4.44724463
H        3.61240840      -3.56450818       3.80752655
H        2.52944164      -4.77676688       3.14169407
H        0.64473912      -5.67903704       5.12601404
H        1.54112243      -7.00214481       7.26578313
