114
Properties=species:S:1:pos:R:3 pbc="F F F"
C        1.75898103       1.75898103      -1.75898103
C        1.25628531       2.58884935      -2.82156193
C        2.29763539       3.26316271      -3.31504565
N        3.44937105       2.88012596      -2.67447392
N        3.08455716       1.94603739      -1.55906527
C        4.67842170       3.68440034      -2.51434326
C        5.31440606       4.09614769      -3.86245851
N        6.56050367       4.86386642      -3.70577130
C        7.79242378       4.38636636      -3.34213658
C        8.73827800       5.25600803      -3.71610668
C        8.06321308       6.33324468      -4.39559590
N        6.72972950       6.12374107      -4.48772167
H        0.22919828       2.68105284      -3.11766201
H        2.31216302       4.02142836      -4.08017269
H        5.41372548       3.10845917      -1.93840984
H        4.44859696       4.58181223      -1.92702238
H        4.59070295       4.68936112      -4.43409114
H        5.51876002       3.19814596      -4.46070868
H        7.89656354       3.43300948      -2.84992926
H        9.79806947       5.16024701      -3.58044596
C        8.74129993       7.45315508      -4.99526157
C        9.30919767       8.39108004      -5.49748158
Br      10.22744028       9.90762537      -6.30952884
C       -1.75898103      -1.75898103      -1.75898103
C       -3.18590651      -1.61067348      -1.87011660
C       -3.60017150      -2.49766972      -2.77800253
N       -2.53806881      -3.24634023      -3.21956189
N       -1.28184058      -2.69031771      -2.61750153
C       -2.42297786      -3.92969405      -4.52449340
C       -3.53315796      -4.98023890      -4.75961539
N       -3.39791771      -5.69037781      -6.04184587
C       -2.49223411      -6.66814607      -6.36054653
C       -2.93270103      -7.35926011      -7.41843158
C       -4.21871800      -6.80811846      -7.76521720
N       -4.59908513      -5.82475748      -6.91734963
H       -3.78651262      -0.88535298      -1.35604753
H       -4.59092233      -2.65019083      -3.17265092
H       -1.44706750      -4.42759286      -4.58593413
H       -2.44832329      -3.18224713      -5.32686116
H       -4.51040349      -4.48448119      -4.71927054
H       -3.52424577      -5.71231923      -3.94104966
H       -1.59395948      -6.80498035      -5.78056244
H       -2.45178050      -8.19043699      -7.89654494
C       -5.04734872      -7.31331387      -8.82905400
C       -5.74132694      -7.73641502      -9.72001732
Br      -6.86343104      -8.42053381     -11.16062965
C       -1.75898103       1.75898103       1.75898103
C       -1.29106635       2.93886582       2.43676442
C       -2.34783722       3.48435830       3.04364823
N       -3.45726730       2.70110514       2.84559849
N       -3.09513656       1.59474579       1.89977747
C       -4.86589210       3.14661322       2.86465998
C       -5.28709291       3.77034113       4.21557821
N       -6.70079407       4.17892012       4.25042720
C       -7.79977439       3.36692752       4.35422480
C       -8.84694791       4.08261103       4.78083377
C       -8.36834549       5.42469729       4.99901089
N       -7.04163722       5.53967373       4.75988130
H       -0.29138846       3.32740706       2.40911760
H       -2.40812480       4.40381711       3.60182216
H       -5.51792647       2.28984213       2.65282589
H       -5.02563839       3.87317469       2.05861850
H       -4.65163973       4.63960887       4.42290661
H       -5.10098879       3.05171720       5.02490868
H       -7.73799476       2.31513405       4.12637347
H       -9.84190394       3.72828378       4.96857472
C       -9.18591128       6.49477505       5.50903026
C       -9.87062263       7.39096518       5.93617148
Br     -10.97774297       8.84002882       6.62682271
C        1.75898103      -1.75898103       1.75898103
C        3.15228471      -1.50307888       2.01133300
C        3.56841625      -2.43134125       2.87608625
N        2.54570174      -3.30288797       3.15538122
N        1.29864877      -2.80099074       2.49002032
C        2.38493909      -4.10923719       4.38298903
C        3.56256943      -5.08069037       4.62975245
N        3.38613652      -5.91323468       5.83077019
C        2.54970505      -6.98793717       5.98328449
C        2.96154077      -7.73326517       7.01558678
C        4.15876748      -7.11075779       7.52252839
N        4.51744828      -6.02614794       6.79759603
H        3.72518402      -0.68654420       1.61618490
H        4.53260938      -2.53606836       3.34508633
H        1.45661794      -4.69019298       4.31378357
H        2.27532704      -3.43832009       5.24378445
H        4.49065342      -4.50366585       4.71983593
H        3.68844138      -5.73351715       3.75565614
H        1.71902035      -7.14580928       5.31467265
H        2.52003108      -8.64161327       7.37711808
C        4.93840950      -7.63980173       8.61150536
C        5.59135970      -8.08287602       9.52352357
Br       6.64712494      -8.79928969      10.99817987
C       -0.00445707       0.01189536      -1.78238275
H       -0.66409135       0.67374010      -2.43557963
H        0.65740317      -0.63156657      -2.45157240
C       -0.90989263      -0.90692880      -0.91072765
C        0.90977584       0.90977584      -0.90977584
C       -0.00465871       1.77757030       0.00794375
H       -0.66225468       2.44313916      -0.64384735
H        0.64322798       2.43503045       0.67728295
C       -1.78241447       0.00034974      -0.00472694
H       -2.45427497      -0.65498947       0.64260836
H       -2.43311707       0.67328779      -0.65473579
C       -0.91132561       0.90220522       0.91563759
C       -0.01476271      -0.02253852       1.78660255
H       -0.67934791      -0.69751639       2.42135241
H        0.63392994       0.61504881       2.47327442
C        0.01484550      -1.77751727      -0.01636693
H        0.67870853      -2.42144646      -0.68295456
H       -0.62264859      -2.45592969       0.64226336
C        1.78714474       0.01002794       0.00389507
H        2.44202412       0.67113390       0.66197326
H        2.45385902      -0.65136977      -0.64189061
C        0.91606151      -0.90478549       0.90901405
