109
Properties=species:S:1:pos:R:3 pbc="F F F"
C        0.00000000       0.00000000       0.00000000
C        0.84862089       0.84862089      -0.84862089
C        0.76373640       2.28460403      -0.89195625
C        1.70970291       2.70540252      -1.73416912
N        2.36382755       1.62699776      -2.27509982
N        1.85964952       0.38077371      -1.61561577
C        3.69669215       1.58541686      -2.85041034
C        3.87043766       2.55770966      -3.94398236
C        4.03221240       3.33353686      -4.84808077
C        4.23402305       4.30428717      -6.02100429
C        4.36119814       5.04314452      -6.96139346
C        4.45410745       5.91924821      -8.14146876
N        5.69540925       6.67530320      -8.18834971
C        6.18381765       7.54084911      -7.24011395
C        6.99704742       8.43380814      -7.81333261
C        6.98855089       8.15466185      -9.22638241
N        6.15112074       7.14129690      -9.54198728
H        0.08897032       2.89340215      -0.32118163
H        1.98423485       3.71469864      -1.99701562
H        3.90259016       0.58195411      -3.24365135
H        4.43899677       1.77631950      -2.06545473
H        3.60481546       6.61377369      -8.15137407
H        4.36432929       5.29642812      -9.04032141
H        5.89529505       7.45418737      -6.20452111
H        7.52416193       9.23455537      -7.33120605
C        7.69464727       8.94172652     -10.20390842
C        8.28600299       9.60089319     -11.02258645
Br       9.24217518      10.66670994     -12.34631958
C       -0.84862089      -0.84862089      -0.84862089
C       -2.19479005      -0.51373051      -1.23177613
C       -2.62708750      -1.49170548      -2.03048157
N       -1.66178093      -2.46064989      -2.14349431
N       -0.42894837      -1.99374835      -1.43334229
C       -1.49083543      -3.43341560      -3.20826832
C       -2.69567277      -4.25447130      -3.42198562
C       -3.66180516      -4.94597895      -3.60604592
C       -4.88449425      -5.84908554      -3.82573472
C       -5.83712114      -6.57130880      -3.95730617
C       -7.00200399      -7.46806279      -4.04475764
N       -7.40825344      -7.73564707      -5.41516165
C       -7.76973968      -6.82095667      -6.37408435
C       -8.57703847      -7.39574289      -7.27140680
C       -8.78776422      -8.75085251      -6.83097842
N       -8.16796079      -9.00893890      -5.65750523
H       -2.72640278       0.37588857      -0.95303989
H       -3.56883448      -1.57820786      -2.54890677
H       -0.65370896      -4.10232671      -2.97215995
H       -1.22846617      -2.91399407      -4.13831077
H       -7.84455562      -7.03081589      -3.49459171
H       -6.74977180      -8.40985185      -3.54145517
H       -7.42046335      -5.80142098      -6.33211921
H       -9.02293039      -6.93508336      -8.13190959
C       -9.65686248      -9.68529732      -7.49812241
C      -10.38473228     -10.46789484      -8.05685551
Br     -11.56163618     -11.73328885      -8.96027966
C       -0.84862089       0.84862089       0.84862089
C       -0.37485355       2.00809600       1.55734713
C       -1.42829479       2.54184370       2.17913606
N       -2.54024007       1.76877503       1.95691003
N       -2.18399655       0.68470144       0.98734100
C       -3.93531249       2.16554176       2.03166510
C       -4.28913497       2.74227158       3.34072313
C       -4.60516368       3.20364288       4.40502347
C       -5.01886425       3.76841728       5.77203298
C       -5.33294311       4.17237051       6.86042250
C       -5.68586642       4.60617490       8.22278311
N       -6.53130237       5.78923764       8.23852215
C       -6.26138169       7.01749597       7.68590304
C       -6.94301058       7.96842471       8.33275287
C       -7.65476244       7.31427649       9.40055621
N       -7.38873211       5.98989634       9.45577647
H        0.63002044       2.38477010       1.54880444
H       -1.48175987       3.43917822       2.77501102
H       -4.58084325       1.29698479       1.85036758
H       -4.15115439       2.89159641       1.23802021
H       -4.77043764       4.80590059       8.79362498
H       -6.19826534       3.77670812       8.72610536
H       -5.57683252       7.11854624       6.85862477
H       -6.93484627       9.02261166       8.13246541
C       -8.45942478       8.00890655      10.37195088
C       -9.13332949       8.59065922      11.18549392
Br     -10.22297641       9.53130409      12.50092420
C        0.84862089      -0.84862089       0.84862089
C        1.73508989      -0.34224513       1.86296166
C        2.30101850      -1.39953012       2.44872593
N        1.87326470      -2.55272054       1.83993989
N        0.82557407      -2.20082268       0.82964225
C        1.84689521      -3.89725267       2.38837147
C        3.17022218      -4.34025029       2.86165721
C        4.24224795      -4.72921685       3.24236522
C        5.61507868      -5.23943337       3.70480246
C        6.70432408      -5.63536498       4.02604706
C        8.06352112      -6.09881913       4.35248417
N        8.12952033      -6.81083066       5.61871117
C        7.75715249      -6.34972783       6.85790039
C        8.43620095      -6.99888276       7.80910446
C        9.33843081      -7.89653169       7.13463264
N        9.26478771      -7.77989203       5.78972517
H        1.87694801       0.69067578       2.11728187
H        2.98959303      -1.42806047       3.27829561
H        1.49743228      -4.60478512       1.62597822
H        1.12612756      -3.94028307       3.21436037
H        8.74718026      -5.24119239       4.38159056
H        8.40869921      -6.75152011       3.54085950
H        7.02432317      -5.56557831       6.96410205
H        8.36362385      -6.85613538       8.87016412
C       10.29475024      -8.73245076       7.81308120
C       11.09566777      -9.43253299       8.38128188
Br      12.39068366     -10.56450673       9.30001431
