101
Properties=species:S:1:pos:R:3 pbc="F F F"
C        0.00000000       0.00000000       0.00000000
C        0.84862089       0.84862089      -0.84862089
C        0.76373640       2.28460403      -0.89195625
C        1.70970291       2.70540252      -1.73416912
N        2.36382755       1.62699776      -2.27509982
N        1.85964952       0.38077371      -1.61561577
C        3.69669215       1.58541686      -2.85041034
C        3.87043766       2.55770966      -3.94398236
C        4.03221240       3.33353686      -4.84808077
C        4.23402305       4.30428717      -6.02100429
C        4.36119814       5.04314452      -6.96139346
C        4.45410745       5.91924821      -8.14146876
N        5.69540925       6.67530320      -8.18834971
C        6.18381765       7.54084911      -7.24011395
C        6.99704742       8.43380814      -7.81333261
C        6.98855089       8.15466185      -9.22638241
N        6.15112074       7.14129690      -9.54198728
Br       7.88776857       9.15699310     -10.47126723
H        0.08897032       2.89340215      -0.32118163
H        1.98423485       3.71469864      -1.99701562
H        3.90259016       0.58195411      -3.24365135
H        4.43899677       1.77631950      -2.06545473
H        3.60481546       6.61377369      -8.15137407
H        4.36432929       5.29642812      -9.04032141
H        5.89529505       7.45418737      -6.20452111
H        7.52416193       9.23455537      -7.33120605
C       -0.84862089      -0.84862089      -0.84862089
C       -2.21061850      -0.53653485      -1.19314333
C       -2.63903095      -1.50588301      -2.00436058
N       -1.65481950      -2.44926510      -2.16184053
N       -0.41672891      -1.97006404      -1.46924605
C       -1.48662271      -3.39330598      -3.25259066
C       -2.67711478      -4.23711785      -3.45789706
C       -3.63128572      -4.94656697      -3.63597734
C       -4.83789207      -5.87266603      -3.84875641
C       -5.77664355      -6.61369437      -3.97539820
C       -6.92253973      -7.53510722      -4.05717748
N       -7.35439471      -7.78082588      -5.42384157
C       -7.75883133      -6.85321748      -6.35273189
C       -8.57351709      -7.42607849      -7.24459259
C       -8.74304057      -8.79539831      -6.83115627
N       -8.09036880      -9.06561794      -5.67841817
Br      -9.84195977      -9.99122716      -7.68284196
H       -2.75570216       0.33389148      -0.88174343
H       -3.59038183      -1.60247137      -2.50309591
H       -0.62922133      -4.04774267      -3.05123162
H       -1.25786780      -2.84688766      -4.17601554
H       -7.76178359      -7.13022974      -3.47794988
H       -6.63729170      -8.48197634      -3.58181078
H       -7.43196231      -5.82704430      -6.29499692
H       -9.04969156      -6.95646516      -8.08376662
C       -0.84862089       0.84862089       0.84862089
C       -0.36507829       1.97985825       1.59536013
C       -1.42031895       2.52387184       2.20508376
N       -2.54427093       1.78268611       1.93896808
N       -2.19033926       0.71319331       0.95250643
C       -3.93117426       2.21052982       1.99081527
C       -4.30245381       2.76504926       3.30462661
C       -4.63283410       3.20903836       4.37195757
C       -5.06560717       3.75168625       5.74202108
C       -5.39593660       4.13768555       6.83211396
C       -5.77088413       4.54810400       8.19583629
N       -6.58887318       5.75016728       8.22002171
C       -6.27761770       6.98414207       7.70302094
C       -6.95219620       7.93572754       8.35626443
C       -7.70396046       7.27409424       9.39154045
N       -7.47000714       5.94286528       9.42153249
Br      -8.73696883       8.15387633      10.62518374
H        0.64815758       2.33273715       1.61897453
H       -1.46711031       3.40820184       2.82063696
H       -4.59214399       1.36192115       1.77413048
H       -4.11132265       2.95964784       1.20980052
H       -4.86485079       4.71285131       8.79226110
H       -6.31409672       3.71958199       8.66740011
H       -5.57152422       7.08806249       6.89441682
H       -6.91491893       8.99377523       8.18122918
C        0.84862089      -0.84862089       0.84862089
C        1.76258339      -0.34039922       1.83731407
C        2.32000698      -1.39716305       2.43210452
N        1.86038695      -2.55309655       1.85244162
N        0.80082371      -2.20029272       0.85492257
C        1.81983755      -3.88679764       2.42588415
C        3.14342909      -4.34543192       2.88326867
C        4.21507630      -4.74710447       3.25164926
C        5.58674233      -5.27404121       3.69853097
C        6.67438459      -5.68406645       4.00728508
C        8.03076545      -6.16646071       4.31759827
N        8.10716744      -6.85659201       5.59530271
C        7.76602720      -6.36642778       6.83232572
C        8.45061841      -7.01067985       7.78288991
C        9.32394591      -7.93679196       7.10885727
N        9.22770887      -7.84311467       5.76358139
Br      10.53808655      -9.00777831       7.97016404
H        1.92771534       0.69416180       2.07000057
H        3.02308819      -1.42336734       3.24949358
H        1.44370334      -4.60143318       1.68305910
H        1.11371685      -3.90165339       3.26540077
H        8.73021408      -5.32116119       4.31858795
H        8.34912641      -6.83994150       3.51201091
H        7.04954848      -5.56714963       6.93730543
H        8.40014802      -6.84749204       8.84228328
