130
Properties=species:S:1:pos:R:3 pbc="F F F"
C        1.75852491       1.75852491      -1.75852491
C        1.67364042       3.19450806      -1.80186027
C        2.61960694       3.61530654      -2.64407314
N        3.27373158       2.53690178      -3.18500384
N        2.76955355       1.29067774      -2.52551979
C        4.60659617       2.49532088      -3.76031437
C        4.78034169       3.46761369      -4.85388639
C        4.94211643       4.24344088      -5.75798479
C        5.14392708       5.21419119      -6.93090831
C        5.27110216       5.95304854      -7.87129748
C        5.36401147       6.82915224      -9.05137278
N        6.60531328       7.58520722      -9.09825373
C        7.09372167       8.45075314      -8.15001797
C        7.90695144       9.34371216      -8.72323664
C        7.89845491       9.06456587     -10.13628643
N        7.06102477       8.05120092     -10.45189130
H        0.99887434       3.80330618      -1.23108566
H        2.89413887       4.62460266      -2.90691964
H        4.81249418       1.49185814      -4.15355537
H        5.34890080       2.68622353      -2.97535875
H        4.51471948       7.52367771      -9.06127809
H        5.27423331       6.20633215      -9.95022544
H        6.80519908       8.36409139      -7.11442513
H        8.43406595      10.14445939      -8.24111007
C        8.60455129       9.85163055     -11.11381244
C        9.19590702      10.51079721     -11.93249047
Br      10.15207920      11.57661396     -13.25622361
C       -1.75852491      -1.75852491      -1.75852491
C       -2.62833595      -1.25371678      -2.78795603
C       -3.19943668      -2.31116082      -3.36838912
N       -2.79097971      -3.46217839      -2.74247911
N       -1.75051224      -3.11060776      -1.72463107
C       -2.77340704      -4.81284963      -3.27597475
C       -4.09630085      -5.24663206      -3.75890885
C       -5.16833495      -5.62810023      -4.14710692
C       -6.54158126      -6.12843775      -4.61900757
C       -7.63155421      -6.51603142      -4.94786256
C       -8.99213069      -6.96826889      -5.28413691
N       -9.05219620      -7.69336293      -6.54321511
C       -8.66137796      -7.24993980      -7.78317502
C       -9.33714711      -7.90208221      -8.73467092
C      -10.25642624      -8.78244469      -8.06043629
N      -10.19609873      -8.65187196      -6.71614630
H       -2.75609410      -0.22216862      -3.05500346
H       -3.87924536      -2.34131553      -4.20510029
H       -2.44001131      -5.51572900      -2.50216739
H       -2.04423896      -4.87274788      -4.09349625
H       -9.66598983      -6.10364890      -5.33003655
H       -9.35322612      -7.60825009      -4.46931469
H       -7.91888658      -6.47499555      -7.88983348
H       -9.25150625      -7.77177239      -9.79635678
C      -11.21443914      -9.61533149      -8.74022365
C      -12.01677494     -10.31287419      -9.30954557
Br     -13.31408407     -11.44074174     -10.23009096
C       -1.75852491       1.75852491       1.75852491
C       -1.66390111       3.19353578       1.81257186
C       -2.61281153       3.61508622       2.65108886
N       -3.27826257       2.53755903       3.17981560
N       -2.77818284       1.29245840       2.51510984
C       -4.61540675       2.50134722       3.74547745
C       -4.79004633       3.46716377       4.84463165
C       -4.95275532       4.23776596       5.75302082
C       -5.15602865       5.20168258       6.93131535
C       -5.28465415       5.93481896       7.87597508
C       -5.37974424       6.80327613       9.06151612
N       -6.61602440       7.56771350       9.10503633
C       -7.09166925       8.44329433       8.15952920
C       -7.90264966       9.33792901       8.73332157
C       -7.90606509       9.04884820      10.14439393
N       -7.07799183       8.02742309      10.45870208
H       -0.98088561       3.80154287       1.25083770
H       -2.88211930       4.62442788       2.91911400
H       -4.83108802       1.49663311       4.13018657
H       -5.35080708       2.70296470       2.95671130
H       -4.52570371       7.49171287       9.08225870
H       -5.30066338       6.17356397       9.95656355
H       -6.79646927       8.36185057       7.12539576
H       -8.42073695      10.14572533       8.25317314
C       -8.61350769       9.83400944      11.12247715
C       -9.20599087      10.49158198      11.94162185
Br     -10.16398606      11.55482116      13.26610955
C        1.75852491      -1.75852491       1.75852491
C        2.64004648      -1.25257998       2.77738230
C        3.20750974      -2.30992434       3.36155254
N        2.78548794      -3.46250894       2.74764032
N        1.73994030      -3.11072542       1.73508535
C        2.76171523      -4.80889715       3.29161904
C        4.08493466      -5.24913782       3.76776928
C        5.15698001      -5.63586187       4.15070022
C        6.52995661      -6.14312485       4.61594512
C        7.61943696      -6.53656451       4.93944673
C        8.97906898      -6.99666726       5.26880025
N        9.04327731      -7.71257781       6.53291912
C        8.66539331      -7.25672032       7.77237916
C        9.34346169      -7.90676123       8.72367732
C       10.25079098      -8.79927923       8.04923700
N       10.18113155      -8.67850301       6.70448243
H        2.77771678      -0.22003746       3.03551194
H        3.89347898      -2.33892048       4.19326172
H        2.41703144      -5.51507466       2.52580159
H        2.03841596      -4.85695302       4.11511410
H        9.65983556      -6.13692670       5.30291302
H        9.32900014      -7.64560047       4.45619029
H        7.92967541      -6.47530176       7.87873843
H        9.26697907      -7.76770372       9.78495262
C       11.20761993      -9.63429531       8.72807904
C       12.00896417     -10.33362128       9.29660925
Br      13.30467003     -11.46437222      10.21587451
C       -0.00445707       0.01189536      -1.78238275
H       -0.66409135       0.67374010      -2.43557963
H        0.65740317      -0.63156657      -2.45157240
C       -0.90989263      -0.90692880      -0.91072765
C        0.90977584       0.90977584      -0.90977584
C       -0.00465871       1.77757030       0.00794375
H       -0.66225468       2.44313916      -0.64384735
H        0.64322798       2.43503045       0.67728295
C       -1.78241447       0.00034974      -0.00472694
H       -2.45427497      -0.65498947       0.64260836
H       -2.43311707       0.67328779      -0.65473579
C       -0.91132561       0.90220522       0.91563759
C       -0.01476271      -0.02253852       1.78660255
H       -0.67934791      -0.69751639       2.42135241
H        0.63392994       0.61504881       2.47327442
C        0.01484550      -1.77751727      -0.01636693
H        0.67870853      -2.42144646      -0.68295456
H       -0.62264859      -2.45592969       0.64226336
C        1.78714474       0.01002794       0.00389507
H        2.44202412       0.67113390       0.66197326
H        2.45385902      -0.65136977      -0.64189061
C        0.91606151      -0.90478549       0.90901405
