114
Properties=species:S:1:pos:R:3 pbc="F F F"
C        1.82050055       1.82050055      -1.82050055
N        2.59105569       2.77352533      -1.04994554
C        2.18318351       4.01517579      -0.64992441
C        3.24339336       4.55724544       0.03804061
C        4.25446599       3.57075438      -0.00992458
N        3.86057017       2.48554766      -0.69356463
C        5.57880250       3.71676365       0.61216503
C        6.60032514       2.74311098       0.53909458
C        7.65019367       3.27252588       1.25209297
N        7.22606606       4.49511317       1.69246623
N        5.95977101       4.78595861       1.32817120
C        7.97124115       5.41771765       2.52331670
H        1.16754462       2.36539241      -2.50757128
H        2.49931100       1.17329039      -2.38227727
H        1.19592038       4.39578765      -0.87074693
H        3.29264673       5.52623040       0.51451132
H        6.56316274       1.78801497       0.03417102
H        8.63865685       2.89344326       1.47092813
H        8.58080903       4.84716791       3.22864842
H        7.27664677       6.06614611       3.06315096
C        8.85304953       6.24883401       1.74533241
C        9.59156406       6.94489397       1.09377056
Br      10.78567958       8.07036404       0.04025016
C       -1.82050055      -1.82050055      -1.82050055
N       -1.37069723      -1.84757057      -3.19625876
C       -1.70808522      -0.96044816      -4.17975033
C       -1.05926953      -1.38950046      -5.31382820
C       -0.36215094      -2.55393766      -4.91905634
N       -0.56909527      -2.84486922      -3.62571797
C        0.48565817      -3.35156019      -5.81749911
C        1.15887524      -4.53231076      -5.43090602
C        1.83148130      -4.94511997      -6.55698790
N        1.53196499      -4.03177380      -7.52890419
N        0.72333458      -3.03989970      -7.10099331
C        2.03890490      -4.01930440      -8.88524260
H       -2.83609171      -1.41701063      -1.78740597
H       -1.80666217      -2.83499183      -1.41322466
H       -2.35402899      -0.11380833      -3.99461762
H       -1.07618451      -0.93416610      -6.29401520
H        1.14907019      -5.00653644      -4.45954044
H        2.47541243      -5.79321604      -6.74336836
H        3.06871531      -4.38546864      -8.88257520
H        2.00136259      -3.00094636      -9.28005815
C        1.26751521      -4.86945823      -9.75460812
C        0.62147634      -5.58146207     -10.48270173
Br      -0.42311387      -6.73271206     -11.65996753
C       -1.82050055       1.82050055       1.82050055
N       -2.43274123       2.90272074       1.07906459
C       -1.88576599       4.13064120       0.83187653
C       -2.82785942       4.82500817       0.10973059
C       -3.91899542       3.93598117      -0.01983165
N       -3.68357979       2.76490654       0.59119613
C       -5.16280385       4.25632240      -0.73572512
C       -6.26554580       3.37887254      -0.84007680
C       -7.19613221       4.06184853      -1.58735417
N       -6.63090602       5.27277075      -1.87496376
N       -5.38375184       5.41305754      -1.37925096
C       -7.21495757       6.32757036      -2.67688583
H       -1.19021041       2.24231061       2.60798730
H       -2.60087044       1.19371368       2.26029454
H       -0.89452566       4.39800931       1.16991998
H       -2.75041706       5.83127458      -0.27732582
H       -6.35644332       2.38509384      -0.42453046
H       -8.18861765       3.79594032      -1.92338599
H       -7.80268572       5.87783195      -3.48118916
H       -6.42085936       6.95224278      -3.09346021
C       -8.09143963       7.16788942      -1.90277791
C       -8.82549335       7.87165664      -1.25446252
Br     -10.01239613       9.00958871      -0.20619138
C        1.82050055      -1.82050055       1.82050055
N        1.23273056      -2.06020579       3.12159021
C        1.35427974      -1.26642521       4.22757876
C        0.64409771      -1.89519688       5.22330360
C        0.13780220      -3.07171124       4.62563150
N        0.51517414      -3.18171754       3.34279078
C       -0.69942434      -4.05729360       5.32553186
C       -1.18104735      -5.24833519       4.73705369
C       -1.91580328      -5.86265903       5.72377082
N       -1.83354032      -5.04565558       6.81659774
N       -1.10856195      -3.92893231       6.59718807
C       -2.48036899      -5.25011398       8.09589711
H        2.77808066      -1.30972807       1.95269959
H        1.97197865      -2.77448301       1.30841700
H        1.91014236      -0.33954120       4.21277138
H        0.50144439      -1.56145761       6.24146381
H       -1.01069929      -5.59892194       3.72878404
H       -2.46963820      -6.79091482       5.73989536
H       -3.45263543      -5.72127845       7.93068550
H       -2.60758251      -4.28828774       8.59893670
C       -1.71001036      -6.11098951       8.95557198
C       -1.06483500      -6.83197277       9.67554969
Br      -0.02164101      -7.99774172      10.83969274
C       -0.00445707       0.01189536      -1.78238275
H       -0.66409135       0.67374010      -2.43557963
H        0.65740317      -0.63156657      -2.45157240
C       -0.90989263      -0.90692880      -0.91072765
C        0.90977584       0.90977584      -0.90977584
C       -0.00465871       1.77757030       0.00794375
H       -0.66225468       2.44313916      -0.64384735
H        0.64322798       2.43503045       0.67728295
C       -1.78241447       0.00034974      -0.00472694
H       -2.45427497      -0.65498947       0.64260836
H       -2.43311707       0.67328779      -0.65473579
C       -0.91132561       0.90220522       0.91563759
C       -0.01476271      -0.02253852       1.78660255
H       -0.67934791      -0.69751639       2.42135241
H        0.63392994       0.61504881       2.47327442
C        0.01484550      -1.77751727      -0.01636693
H        0.67870853      -2.42144646      -0.68295456
H       -0.62264859      -2.45592969       0.64226336
C        1.78714474       0.01002794       0.00389507
H        2.44202412       0.67113390       0.66197326
H        2.45385902      -0.65136977      -0.64189061
C        0.91606151      -0.90478549       0.90901405
