85
Properties=species:S:1:pos:R:3 pbc="F F F"
C        0.00000000       0.00000000       0.00000000
C        0.91059653       0.91059653      -0.91059653
N        1.68115167       1.86362130      -0.14004152
C        1.27327949       3.10527176       0.25997962
C        2.33348933       3.64734142       0.94794464
C        3.34456196       2.66085036       0.89997945
N        2.95066615       1.57564363       0.21633939
C        4.66889848       2.80685963       1.52206905
C        5.69042112       1.83320695       1.44899861
C        6.74028964       2.36262185       2.16199700
N        6.31616204       3.58520915       2.60237025
N        5.04986698       3.87605459       2.23807522
C        7.06133712       4.50781363       3.43322073
Br       8.25040004       5.62852155       2.38415804
H        0.25764060       1.45548839      -1.59766725
H        1.58940698       0.26338636      -1.47237324
H        0.28601635       3.48588362       0.03915710
H        2.38274271       4.61632637       1.42441534
H        5.65325872       0.87811095       0.94407505
H        7.72875282       1.98353924       2.38083216
H        7.67090501       3.93726388       4.13855244
H        6.36674275       5.15624209       3.97305498
C       -0.91059653      -0.91059653      -0.91059653
N       -1.65058096      -0.14376220      -1.89047133
C       -2.86594297       0.45381862      -1.70644729
C       -3.17837470       1.05077347      -2.90528490
C       -2.09376751       0.74774845      -3.75941382
N       -1.16686723      -0.00076222      -3.14234094
C       -1.99407187       1.19652274      -5.15613992
C       -0.92426059       0.86892139      -6.01929026
C       -1.22207378       1.49038904      -7.20922976
N       -2.41513543       2.12758627      -7.01145177
N       -2.90236253       1.97670794      -5.76219176
C       -3.12002508       2.95353371      -7.96943865
Br      -4.22278826       1.89396770      -9.16594299
H       -1.61823276      -1.43207306      -0.26049042
H       -0.26943052      -1.63302421      -1.42271185
H       -3.38849901       0.41675234      -0.76099621
H       -4.06046256       1.62860634      -3.14279752
H       -0.05826156       0.26312224      -5.79215529
H       -0.70114882       1.52552043      -8.15583151
H       -2.38986107       3.49581008      -8.57556545
H       -3.76726853       3.65667961      -7.43934093
C       -0.91059653       0.91059653       0.91059653
N       -1.53522435       0.16603651       1.98355363
C       -2.71719183      -0.51719323       1.91857304
C       -2.91369763      -1.05130096       3.17048945
C       -1.80047602      -0.62492125       3.92987810
N       -0.96583944       0.13723086       3.20690009
C       -1.58409109      -0.97255199       5.34214996
C       -0.48667747      -0.52202148       6.10997347
C       -0.66754844      -1.08021961       7.35358567
N       -1.82552841      -1.80242411       7.27589663
N       -2.39877390      -1.76581855       6.05489100
C       -2.41263682      -2.60511713       8.32841032
Br      -3.50666928      -1.53912603       9.52722031
H       -1.69060768       1.34240339       0.27778517
H       -0.28825779       1.70415552       1.33275328
H       -3.29906747      -0.57589174       1.00956715
H       -3.73877821      -1.66597488       3.50185041
H        0.32116644       0.12018866       5.78827241
H       -0.08735412      -1.01961948       8.26372527
H       -1.61155242      -3.05916006       8.91722408
H       -3.04343490      -3.38105227       7.88754722
C        0.91059653      -0.91059653       0.91059653
N        0.61509327      -2.31877164       0.75094958
C       -0.33716300      -3.03132184       1.42441279
C       -0.24468659      -4.32113777       0.95643493
C        0.80359546      -4.29305714       0.00878027
N        1.34287695      -3.06953948      -0.10244604
C        1.25080652      -5.46357069      -0.76068816
C        2.31830262      -5.44268404      -1.68635720
C        2.39162470      -6.72547796      -2.17618817
N        1.40832997      -7.42788849      -1.53721753
N        0.68694524      -6.67853671      -0.67763560
C        1.06635026      -8.81888339      -1.74930362
Br       2.18686156     -10.00804672      -0.70014473
H        0.73270639      -0.62676346       1.95132639
H        1.95480256      -0.72560519       0.64475884
H       -0.99206714      -2.57289399       2.15191602
H       -0.84475524      -5.17170268       1.24770630
H        2.94053621      -4.59998358      -1.95322517
H        3.04813279      -7.18506771      -2.90174059
H        1.21133639      -9.06302899      -2.80474893
H        0.02530543      -8.98709856      -1.46247414
