106
Properties=species:S:1:pos:R:3 pbc="F F F"
C        1.82050055       1.82050055      -1.82050055
N        2.59105569       2.77352533      -1.04994554
C        2.18318351       4.01517579      -0.64992441
C        3.24339336       4.55724544       0.03804061
C        4.25446599       3.57075438      -0.00992458
N        3.86057017       2.48554766      -0.69356463
C        5.57880250       3.71676365       0.61216503
C        6.60032514       2.74311098       0.53909458
C        7.65019367       3.27252588       1.25209297
N        7.22606606       4.49511317       1.69246623
N        5.95977101       4.78595861       1.32817120
C        7.97124115       5.41771765       2.52331670
Br       9.16030407       6.53842558       1.47425401
H        1.16754462       2.36539241      -2.50757128
H        2.49931100       1.17329039      -2.38227727
H        1.19592038       4.39578765      -0.87074693
H        3.29264673       5.52623040       0.51451132
H        6.56316274       1.78801497       0.03417102
H        8.63865685       2.89344326       1.47092813
H        8.58080903       4.84716791       3.22864842
H        7.27664677       6.06614611       3.06315096
C       -1.82050055      -1.82050055      -1.82050055
N       -1.29590776      -1.95561584      -3.16300297
C       -1.52312191      -1.11149190      -4.21366990
C       -0.83804028      -1.64397329      -5.28058462
C       -0.23562691      -2.82021604      -4.77930201
N       -0.53262478      -3.02072835      -3.48632933
C        0.61227450      -3.71712771      -5.57854793
C        1.19035137      -4.90876516      -5.08592774
C        1.89966488      -5.42592656      -6.14436489
N        1.71111262      -4.55711889      -7.18270674
N        0.94058704      -3.49710717      -6.86103829
C        2.29392190      -4.65490055      -8.50466345
Br       1.25485669      -5.80885355      -9.67047877
H       -2.81025750      -1.35885597      -1.87139484
H       -1.89073370      -2.80784285      -1.35630211
H       -2.12648567      -0.22002177      -4.11594751
H       -0.77200380      -1.24812241      -6.28423960
H        1.09705103      -5.32245881      -4.09159891
H        2.50100607      -6.31880888      -6.24336917
H        3.29806563      -5.07800415      -8.41939000
H        2.34005837      -3.66161303      -8.95808727
C       -1.82050055       1.82050055       1.82050055
N       -2.31309041       2.98536279       1.11607336
C       -1.67517082       4.18711616       0.98599672
C       -2.52176129       4.98654058       0.25429632
C       -3.65525674       4.18209988      -0.00221168
N       -3.53477151       2.96203621       0.54287474
C       -4.82609411       4.62879447      -0.77148744
C       -5.97210459       3.83508069      -1.00284375
C       -6.80627218       4.62396521      -1.75961083
N       -6.14854481       5.81010084      -1.92993265
N       -4.93090127       5.83564507      -1.34898791
C       -6.61074365       6.94955795      -2.69465950
Br      -7.78646613       8.09150753      -1.65349802
H       -1.21900097       2.14929094       2.67221641
H       -2.66610971       1.22089090       2.16787805
H       -0.69391208       4.36613131       1.40241156
H       -2.35593562       6.00762269      -0.05919250
H       -6.15244854       2.82555061      -0.66099246
H       -7.78881374       4.44636115      -2.17400291
H       -7.17048353       6.59116879      -3.56232380
H       -5.75314429       7.54469517      -3.01819753
C        1.82050055      -1.82050055       1.82050055
N        1.17760651      -2.16625704       3.07066301
C        1.19296947      -1.43197398       4.22334026
C        0.46703320      -2.15466841       5.14089658
C        0.06250274      -3.32064621       4.45199599
N        0.51478204      -3.33599552       3.18890490
C       -0.75346787      -4.38892474       5.04794425
C       -1.13306763      -5.56857126       4.36883790
C       -1.88384187      -6.27768147       5.27678697
N       -1.90826188      -5.52162782       6.41534706
N       -1.23786071      -4.35636219       6.29905694
C       -2.61087168      -5.83420645       7.64230733
Br      -1.57162066      -7.00158732       8.79450897
H        2.73850673      -1.26685949       2.03514210
H        2.05422503      -2.73379652       1.26685712
H        1.69457842      -0.47691762       4.29095891
H        0.25026075      -1.88829913       6.16580593
H       -0.88825614      -5.85079797       3.35446487
H       -2.38342220      -7.23407080       5.21052339
H       -3.54400107      -6.34726357       7.39606602
H       -2.82036706      -4.91125153       8.18875746
C       -0.00445707       0.01189536      -1.78238275
H       -0.66409135       0.67374010      -2.43557963
H        0.65740317      -0.63156657      -2.45157240
C       -0.90989263      -0.90692880      -0.91072765
C        0.90977584       0.90977584      -0.90977584
C       -0.00465871       1.77757030       0.00794375
H       -0.66225468       2.44313916      -0.64384735
H        0.64322798       2.43503045       0.67728295
C       -1.78241447       0.00034974      -0.00472694
H       -2.45427497      -0.65498947       0.64260836
H       -2.43311707       0.67328779      -0.65473579
C       -0.91132561       0.90220522       0.91563759
C       -0.01476271      -0.02253852       1.78660255
H       -0.67934791      -0.69751639       2.42135241
H        0.63392994       0.61504881       2.47327442
C        0.01484550      -1.77751727      -0.01636693
H        0.67870853      -2.42144646      -0.68295456
H       -0.62264859      -2.45592969       0.64226336
C        1.78714474       0.01002794       0.00389507
H        2.44202412       0.67113390       0.66197326
H        2.45385902      -0.65136977      -0.64189061
C        0.91606151      -0.90478549       0.90901405
