194
Properties=species:S:1:pos:R:3 pbc="F F F"
C        1.79254562       1.79254562      -1.79254562
C        3.00876326       1.27823299      -2.28402876
C        3.84518167       2.05847030      -3.09558150
C        3.44374944       3.34699935      -3.40119977
C        2.22360443       3.83123039      -2.89671812
C        1.38002162       3.08774242      -2.09534955
C        2.05718869       5.21743867      -3.38276818
O        1.12424307       5.95627625      -3.15752006
C        3.25233930       5.52105147      -4.19920190
C        4.07084007       4.38156436      -4.19627316
C        5.26354057       4.40370231      -4.89205162
C        5.60988553       5.57811742      -5.58071695
C        4.77839425       6.73008832      -5.58425130
C        3.57006619       6.68793139      -4.86985548
C        5.17783797       7.94487664      -6.31960685
C        5.59589348       7.86755278      -7.67512270
C        5.98273734       9.00184746      -8.40786511
C        5.94922549      10.23025110      -7.77721231
C        5.53379596      10.30456103      -6.43935767
C        5.14972250       9.20308341      -5.69645679
C        5.59452400      11.72362600      -6.02922847
O        5.31399984      12.17860275      -4.94108626
C        6.06773549      12.48065695      -7.20713763
C        6.27669243      11.55907544      -8.24856280
C        6.72804608      12.00867920      -9.47726983
C        6.96065132      13.38255324      -9.63593179
C        6.74038186      14.28123801      -8.57336895
C        6.28706890      13.83804597      -7.33338019
H        3.31030334       0.26263489      -2.03428610
H        4.77990343       1.65101841      -3.46754611
H        0.44901738       3.50584468      -1.72906060
H        5.92742047       3.54534342      -4.91031466
H        6.55934940       5.59953676      -6.11579453
H        2.88748887       7.53236838      -4.83959345
H        5.60725283       6.90129043      -8.17926321
H        6.29258177       8.90242127      -9.44323500
H        4.84702942       9.32794843      -4.66075050
H        6.90093930      11.32649901     -10.30353132
H        7.31559889      13.75220516     -10.59616261
H        6.11006020      14.50993226      -6.50092309
C        6.98957123      15.68506369      -8.77530493
C        7.19826733      16.86076769      -8.94442631
Br       7.53571128      18.76178162      -9.21788128
C       -1.79254562      -1.79254562      -1.79254562
C       -1.24645535      -2.95737069      -2.36719897
C       -2.02499209      -3.79103885      -3.18320254
C       -3.34420671      -3.43923302      -3.40850884
C       -3.86067647      -2.27122626      -2.81965021
C       -3.11917418      -1.43085480      -2.01308460
C       -5.27651450      -2.15272940      -3.22815164
O       -6.04983516      -1.27555172      -2.91265251
C       -5.56108174      -3.31707847      -4.09443246
C       -4.38492131      -4.07626912      -4.18748715
C       -4.38221403      -5.22878853      -4.94829195
C       -5.56959927      -5.59610951      -5.60301112
C       -6.76017558      -4.82705305      -5.50550524
C       -6.74220771      -3.65784486      -4.72780050
C       -7.98716059      -5.24622193      -6.20893893
C       -8.47339142      -6.57568938      -6.08948815
C       -9.63785254      -7.01132009      -6.74327728
C      -10.32643016      -6.10477162      -7.52548712
C       -9.84578334      -4.79183518      -7.64009614
C       -8.70193067      -4.33923045      -7.00810159
C      -10.76975867      -4.05187678      -8.52574302
O      -10.68023544      -2.89075700      -8.86269639
C      -11.82501678      -5.00739779      -8.92311549
C      -11.53585747      -6.23914303      -8.30933018
C      -12.37460158      -7.31983607      -8.51955748
C      -13.49339141      -7.13990495      -9.34583999
C      -13.75695356      -5.89247991      -9.94555536
C      -12.91835868      -4.79969952      -9.74043687
H       -0.20683372      -3.22005858      -2.18033203
H       -1.59256191      -4.68536434      -3.62054169
H       -3.56190923      -0.53968807      -1.58232537
H       -3.49184427      -5.84089868      -5.05033559
H       -5.56110898      -6.49720185      -6.21636986
H       -7.62109327      -3.03097969      -4.60737774
H       -7.94042836      -7.28780439      -5.45957372
H       -9.97952270      -8.03453002      -6.62418533
H       -8.37845943      -3.31146307      -7.14580585
H      -12.18262153      -8.28550819      -8.06283991
H      -14.16297553      -7.97991956      -9.52107157
H      -13.10018513      -3.83013883     -10.19059160
C      -14.91648983      -5.74659090     -10.78685912
C      -15.88760145      -5.62440885     -11.49145103
Br     -17.45780682      -5.42685080     -12.63071655
C       -1.79254562       1.79254562       1.79254562
C       -2.12759233       3.08907647       1.35435622
C       -2.93407725       3.92797679       2.13717943
C       -3.39247022       3.44804905       3.35142930
C       -3.04204547       2.14898115       3.76052633
C       -2.24972288       1.30078066       3.01261005
C       -3.66843146       1.91071859       5.07824548
O       -3.59424786       0.90089580       5.74289573
C       -4.40431529       3.14674362       5.42153375
C       -4.22440006       4.05597902       4.36829851
C       -4.81441630       5.30237662       4.44250158
C       -5.57797372       5.60987194       5.58087424
C       -5.76077367       4.68673838       6.64522182
C       -5.15175241       3.42480910       6.55129156
C       -6.56987968       5.04782183       7.82461995
C       -7.87133750       5.59625135       7.67098010
C       -8.67138161       5.95148935       8.76957895
C       -8.16392378       5.75383895      10.03892617
C       -6.87947638       5.20992885      10.18830944
C       -6.07219666       4.85367398       9.12339206
C       -6.60056241       5.11010042      11.63671564
O       -5.58794748       4.69080459      12.15493676
C       -7.79938154       5.62508624      12.33106228
C       -8.72802702       6.00899584      11.34730781
C       -9.95027142       6.53340839      11.73031531
C      -10.21657353       6.66128450      13.10127832
C       -9.26578349       6.26613351      14.06307182
C       -8.03311803       5.73817000      13.68720704
H       -1.75878040       3.45177497       0.39666896
H       -3.18471745       4.92492602       1.78882447
H       -2.00539270       0.30713854       3.37139143
H       -4.69513778       6.03614204       3.65179873
H       -6.02936641       6.59999297       5.64532131
H       -5.25942557       2.67256530       7.32745983
H       -8.27979289       5.73760044       6.67041314
H       -9.66248693       6.36445160       8.61129951
H       -5.08253083       4.44559375       9.30760377
H      -10.69104058       6.84085200      10.99907704
H      -11.17327918       7.07174235      13.41894513
H       -7.28559063       5.42694522      14.40837970
C       -9.57639712       6.41195159      15.46159113
C       -9.83653604       6.53407423      16.63285105
Br     -10.25715867       6.73153622      18.52667929
C        1.79254562      -1.79254562       1.79254562
C        2.28917700      -1.27608854       3.00575948
C        3.10266366      -2.05552029       3.84104953
C        3.40417118      -3.34576163       3.44201575
C        2.89213276      -3.83314039       2.22627979
C        2.09007645      -3.08993889       1.38309825
C        3.37060830      -5.22250376       2.06428347
O        3.13039171      -5.96757634       1.14007134
C        4.19675779      -5.52206954       3.25376533
C        4.20155270      -4.37936521       4.06775967
C        4.90966238      -4.39636670       5.25326542
C        5.60176923      -5.56934827       5.59760240
C        5.59363652      -6.72617898       4.77291836
C        4.86844271      -6.68851987       3.57089048
C        6.33389710      -7.93892416       5.16950020
C        6.17837105      -8.49101178       6.46918613
C        6.86546494      -9.64432095       6.88266402
C        7.71807815     -10.25488292       5.98372782
C        7.86829938      -9.70934768       4.70006760
C        7.20466092      -8.57485398       4.26974780
C        8.82766589     -10.55796102       3.96175157
O        9.21116914     -10.39993653       2.82258317
C        9.23080361     -11.63771633       4.88701013
C        8.55037416     -11.43335852       6.10059799
C        8.75118435     -12.31112385       7.15168692
C        9.63554526     -13.38271425       6.96087684
C       10.30144217     -13.56142401       5.73212264
C       10.10627216     -12.68302173       4.66920118
H        2.04292219      -0.25903760       3.30526454
H        3.47949809      -1.64603991       4.77292994
H        1.72014585      -3.50955805       0.45421877
H        4.94317237      -3.53165682       5.90824935
H        6.17359531      -5.57546035       6.52562503
H        4.81671253      -7.54189923       2.90083894
H        5.49355217      -8.02000021       7.17425408
H        6.71715631     -10.03794585       7.88313588
H        7.37258814      -8.19835584       3.26478437
H        8.24377615     -12.18447227       8.10272121
H        9.80424938     -14.08206979       7.77764749
H       10.60683288     -12.79965094       3.71443174
C       11.20117389     -14.67458888       5.57417707
C       11.95469920     -15.60686446       5.44189766
Br      13.17308591     -17.11427523       5.22801304
C       -0.00445707       0.01189536      -1.78238275
H       -0.66409135       0.67374010      -2.43557963
H        0.65740317      -0.63156657      -2.45157240
C       -0.90989263      -0.90692880      -0.91072765
C        0.90977584       0.90977584      -0.90977584
C       -0.00465871       1.77757030       0.00794375
H       -0.66225468       2.44313916      -0.64384735
H        0.64322798       2.43503045       0.67728295
C       -1.78241447       0.00034974      -0.00472694
H       -2.45427497      -0.65498947       0.64260836
H       -2.43311707       0.67328779      -0.65473579
C       -0.91132561       0.90220522       0.91563759
C       -0.01476271      -0.02253852       1.78660255
H       -0.67934791      -0.69751639       2.42135241
H        0.63392994       0.61504881       2.47327442
C        0.01484550      -1.77751727      -0.01636693
H        0.67870853      -2.42144646      -0.68295456
H       -0.62264859      -2.45592969       0.64226336
C        1.78714474       0.01002794       0.00389507
H        2.44202412       0.67113390       0.66197326
H        2.45385902      -0.65136977      -0.64189061
C        0.91606151      -0.90478549       0.90901405
