165
Properties=species:S:1:pos:R:3 pbc="F F F"
C        0.00000000       0.00000000       0.00000000
C        0.88264159       0.88264159      -0.88264159
C        2.09885924       0.36832897      -1.37412473
C        2.93527764       1.14856627      -2.18567748
C        2.53384542       2.43709533      -2.49129575
C        1.31370040       2.92132637      -1.98681410
C        0.47011759       2.17783840      -1.18544553
C        1.14728467       4.30753465      -2.47286416
O        0.21433904       5.04637223      -2.24761604
C        2.34243527       4.61114745      -3.28929787
C        3.16093604       3.47166033      -3.28636914
C        4.35363655       3.49379829      -3.98214759
C        4.69998151       4.66821339      -4.67081293
C        3.86849023       5.82018429      -4.67434728
C        2.66016217       5.77802737      -3.95995146
C        4.26793394       7.03497261      -5.40970283
C        4.68598945       6.95764875      -6.76521868
C        5.07283332       8.09194343      -7.49796108
C        5.03932147       9.32034707      -6.86730828
C        4.62389193       9.39465701      -5.52945365
C        4.23981848       8.29317939      -4.78655277
C        4.68461998      10.81372198      -5.11932444
O        4.40409581      11.26869872      -4.03118223
C        5.15783146      11.57075292      -6.29723361
C        5.36678841      10.64917142      -7.33865877
C        5.81814206      11.09877518      -8.56736581
C        6.05074729      12.47264922      -8.72602777
C        5.83047784      13.37133399      -7.66346492
C        5.37716488      12.92814195      -6.42347616
Br       6.15786309      15.21568157      -7.92876862
H        2.40039932      -0.64726913      -1.12438207
H        3.86999940       0.74111438      -2.55764208
H       -0.46088664       2.59594066      -0.81915658
H        5.01751644       2.63543939      -4.00041063
H        5.64944537       4.68963274      -5.20589051
H        1.97758484       6.62246435      -3.92968943
H        4.69734880       5.99138641      -7.26935919
H        5.38267774       7.99251725      -8.53333098
H        3.93712539       8.41804441      -3.75084648
H        5.99103527      10.41659498      -9.39362730
H        6.40569487      12.84230113      -9.68625859
H        5.20015618      13.60002824      -5.59101907
C       -0.88264159      -0.88264159      -0.88264159
C       -2.01273070      -0.32008840      -1.50849384
C       -2.84645338      -1.09865098      -2.32441704
C       -2.52918268      -2.43423333      -2.49882049
C       -1.39372320      -2.96612871      -1.86198896
C       -0.55509995      -2.22545497      -1.05284660
C       -1.30441364      -4.39579989      -2.22746993
O       -0.45410469      -5.18185484      -1.87236778
C       -2.45559381      -4.67412581      -3.11316098
C       -3.17675337      -3.47994075      -3.26227139
C       -4.31169783      -3.46890392      -4.04898067
C       -4.69959145      -4.66603945      -4.67337693
C       -3.96648943      -5.87365617      -4.52287619
C       -2.81578525      -5.86445817      -3.71789757
C       -4.40692948      -7.11072254      -5.19495737
C       -4.71437264      -7.11257054      -6.58191371
C       -5.13594929      -8.27037081      -7.25641774
C       -5.24975138      -9.44253801      -6.53468743
C       -4.94334737      -9.43893173      -5.16572350
C       -4.52795194      -8.31271421      -4.47888449
C       -5.14973892     -10.81142445      -4.65650303
O       -4.98957963     -11.19630098      -3.51809617
C       -5.59309330     -11.62394398      -5.80878072
C       -5.64773799     -10.77690430      -6.92997632
C       -6.04058817     -11.28964904      -8.15404585
C       -6.37142930     -12.65051659      -8.22747839
C       -6.30526897     -13.47393269      -7.08607509
C       -5.91183921     -12.96679122      -5.85015256
Br      -6.76051032     -15.30393230      -7.23787066
H       -2.24869230       0.73220000      -1.36101996
H       -3.71442495      -0.65373051      -2.80060040
H        0.30873808      -2.68114230      -0.58180637
H       -4.90042500      -2.56745192      -4.18548955
H       -5.60479805      -4.65949909      -5.28067147
H       -2.20824559      -6.75250295      -3.56899008
H       -4.60934106      -6.19232531      -7.15642802
H       -5.35808584      -8.23237662      -8.31806351
H       -4.31501404      -8.37542695      -3.41557529
H       -6.09498642     -10.66577572      -9.04049541
H       -6.68212819     -13.06923442      -9.18289198
H       -5.85297987     -13.58023961      -4.95798400
C       -0.88264159       0.88264159       0.88264159
C       -0.29195710       1.92449901       1.62485683
C       -1.06919818       2.75407691       2.44624632
C       -2.43204051       2.52230506       2.50789092
C       -2.99221652       1.47554563       1.75407872
C       -2.25326002       0.64230835       0.93783315
C       -4.44780988       1.46753900       2.01233458
O       -5.26335057       0.70970980       1.53526694
C       -4.71001099       2.56814494       2.96472466
C       -3.48355839       3.18809982       3.24730730
C       -3.45144844       4.25695004       4.12118395
C       -4.66068060       4.68278381       4.69554342
C       -5.90187261       4.05498813       4.40616105
C       -5.91332510       2.96905264       3.51576325
C       -7.15049933       4.53168635       5.03042369
C       -7.49377166       5.90998083       5.00510440
C       -8.67375603       6.40113620       5.58784561
C       -9.52285053       5.50164547       6.20248083
C       -9.18303858       4.14075806       6.22420596
C       -8.02733802       3.63289132       5.65932129
C      -10.26024716       3.42101345       6.93640580
O      -10.31654050       2.23027813       7.15715813
C      -11.25620161       4.43969745       7.32991893
C      -10.78940750       5.68695335       6.87825774
C      -11.53962766       6.82462699       7.12002840
C      -12.75058531       6.68528720       7.81355177
C      -13.19204932       5.42116331       8.25206412
C      -12.44365284       4.27105567       8.01407448
Br     -14.83384095       5.28610472       9.18236760
H        0.78164307       2.09361789       1.56553744
H       -0.60225686       3.55298179       3.01351722
H       -2.73079235      -0.15301451       0.37643276
H       -2.52277455       4.76029781       4.37029411
H       -4.63120098       5.51604318       5.39772446
H       -6.83010358       2.45163401       3.24800103
H       -6.83302358       6.61884224       4.50622857
H       -8.90288718       7.46109099       5.54454779
H       -7.81859938       2.56856693       5.71884996
H      -11.21059569       7.80377263       6.78688923
H      -13.35241977       7.57031739       8.01151744
H      -12.76231430       3.28761966       8.34126951
C        0.88264159      -0.88264159       0.88264159
C        0.37527559      -2.10822255       1.35781480
C        1.15498445      -2.94392866       2.17060828
C        2.43633849      -2.53282528       2.49307273
C        2.91478893      -1.30488863       2.00216331
C        2.17106558      -0.46098855       1.20134739
C        4.29602599      -1.13177222       2.49988525
O        5.03241811      -0.19553037       2.28037884
C        4.60020325      -2.32768366       3.31499368
C        3.46776553      -3.15568627       3.29551371
C        3.49082610      -4.34963035       3.98912598
C        4.65939727      -4.68809831       4.69151225
C        5.80586701      -3.84919205       4.70796274
C        5.76215638      -2.63876976       3.99721485
C        7.01425409      -4.24000757       5.45834772
C        7.58437887      -5.53075504       5.29372297
C        8.73420456      -5.93853307       5.99000020
C        9.32296266      -5.04284700       6.86116716
C        8.75965442      -3.76797593       7.02037225
C        7.62814242      -3.34341933       6.34798889
C        9.58711541      -3.03128469       7.99926630
O        9.41018706      -1.89901961       8.39477010
C       10.67327741      -3.94812986       8.40441073
C       10.49246404      -5.15556352       7.70659103
C       11.38072800      -6.19818449       7.90537056
C       12.43888272      -6.00523365       8.80530791
C       12.59404185      -4.78277064       9.48846426
C       11.70492403      -3.72839713       9.29546184
Br      14.03914849      -4.57202153      10.69114325
H       -0.63485157      -2.41713687       1.09522695
H        0.75254603      -3.88540805       2.53080179
H        2.58359362       0.47752914       0.84814612
H        2.63400369      -5.01558127       4.00378152
H        4.67003785      -5.62303355       5.25189722
H        6.60768652      -1.95766589       3.96438621
H        7.13066575      -6.23297627       4.59445238
H        9.14207101      -6.93215404       5.83430091
H        7.23710247      -2.34534117       6.52357263
H       11.27220407      -7.14430538       7.38474810
H       13.14623786      -6.81536928       8.97264745
H       11.80346488      -2.77857971       9.80915889
