181
Properties=species:S:1:pos:R:3 pbc="F F F"
C        0.00000000       0.00000000       0.00000000
C        0.88337129       0.88337129      -0.88337129
C        1.98599289       0.30806225      -1.54706245
C        2.81890916       1.08632854      -2.36546664
C        2.52920543       2.43315407      -2.50362227
C        1.42205533       2.97861311      -1.82881541
C        0.58466982       2.23834454      -1.01709356
C        1.35953635       4.42017475      -2.15895757
O        0.53879926       5.21914937      -1.76176478
C        2.49560526       4.68932895      -3.06746752
C        3.18530991       3.47852647      -3.26069756
C        4.30216395       3.45182280      -4.07788614
C        4.70523601       4.65015114      -4.68734349
C        3.99725953       5.85376246      -4.47831521
C        2.87071508       5.88233354      -3.65488571
C        4.44118801       7.05389574      -5.11763351
C        4.81454431       8.06058640      -5.65474751
C        5.29162382       9.34255173      -6.34060032
C        5.66707286      10.34640158      -6.88056801
C        6.11574745      11.54111714      -7.52661692
C        7.25413745      11.49665692      -8.36013284
C        7.72433185      12.64634199      -9.01241296
C        7.04123681      13.83349164      -8.81822985
C        5.91046121      13.85361122      -7.98330719
C        5.42558259      12.73773042      -7.32905558
C        5.39250336      15.23807833      -7.96408235
O        4.42712349      15.64389532      -7.35382037
C        6.28371770      16.03161688      -8.83631953
C        7.26957534      15.16427798      -9.33983370
C        8.24126664      15.65710180     -10.19302516
C        8.20288245      17.01902949     -10.52507993
C        7.20208407      17.86295700     -10.00413501
C        6.22020889      17.37590111      -9.14495244
Br       7.19403027      19.69312114     -10.48279866
H        2.20098415      -0.75219912      -1.42842073
H        3.66564838       0.63349554      -2.87207456
H       -0.25712044       2.70529927      -0.51755727
H        4.86235130       2.53784555      -4.25314653
H        5.58240614       4.64561386      -5.33328551
H        2.30634596       6.79167642      -3.47526665
H        7.78158179      10.55453648      -8.50376180
H        8.60123928      12.59195009      -9.64950883
H        4.54767647      12.80411799      -6.69479656
H        9.01723113      15.01715616     -10.60092290
H        8.96005177      17.42216510     -11.19509114
H        5.44002960      18.00528867      -8.73148898
C       -0.88337129      -0.88337129      -0.88337129
C       -2.24743198      -0.56061737      -1.03306823
C       -3.08879213      -1.34716165      -1.83475055
C       -2.54402079      -2.44772188      -2.47423909
C       -1.17938903      -2.74442822      -2.30566661
C       -0.32695686      -1.98947940      -1.52367165
C       -0.88225797      -3.95979347      -3.09661723
O        0.19089865      -4.51501372      -3.19559834
C       -2.15314369      -4.35962134      -3.73963670
C       -3.13919089      -3.43471084      -3.35063220
C       -4.43405141      -3.58025694      -3.81756455
C       -4.71267245      -4.65928483      -4.67077337
C       -3.70648704      -5.57543916      -5.04741100
C       -2.40027554      -5.42991776      -4.57774103
C       -4.03179240      -6.66233854      -5.91858632
C       -4.30583781      -7.57416596      -6.64987445
C       -4.65692281      -8.73541312      -7.58243994
C       -4.93450490      -9.64464603      -8.31489152
C       -5.26766832     -10.72653424      -9.18927896
C       -6.59185571     -10.85901146      -9.66006004
C       -6.95760606     -11.90537313     -10.52010762
C       -5.98300008     -12.81110022     -10.89885801
C       -4.67118812     -12.65925224     -10.41693926
C       -4.28320796     -11.63938963      -9.56977100
C       -3.85716712     -13.75711373     -10.98038319
O       -2.67696413     -13.95740846     -10.79046659
C       -4.76576414     -14.56376373     -11.82212625
C       -6.04117054     -13.97477123     -11.75774525
C       -7.08970180     -14.53803511     -12.46365669
C       -6.83449409     -15.68819437     -13.22430341
C       -5.54537651     -16.25511678     -13.26868279
C       -4.48418247     -15.69521501     -12.56166496
Br      -5.25283713     -17.80718304     -14.30992990
H       -2.66110800       0.30768880      -0.52378657
H       -4.13796041      -1.08997736      -1.94328071
H        0.71878278      -2.25947174      -1.42504713
H       -5.22415945      -2.88799541      -3.54118852
H       -5.72703023      -4.78759926      -5.04667603
H       -1.60603698      -6.11762721      -4.84962485
H       -7.34847387     -10.13793657      -9.35346963
H       -7.98087280     -11.99023548     -10.87158992
H       -3.25706148     -11.56446153      -9.22506800
H       -8.08704402     -14.11064472     -12.43762145
H       -7.64862061     -16.14329835     -13.78538905
H       -3.48371531     -16.11292747     -12.58016446
C       -0.88337129       0.88337129       0.88337129
C       -0.37569969       2.11136544       1.35405245
C       -1.15607085       2.94818327       2.16645022
C       -2.43681854       2.53599787       2.49316537
C       -2.91567747       1.30539804       2.00840834
C       -2.17161154       0.46097375       1.20752263
C       -4.29625031       1.12983040       2.51258796
O       -5.02986323       0.18793907       2.30191111
C       -4.59999487       2.33001588       3.32239098
C       -3.46611028       3.16229530       3.29612836
C       -3.48526671       4.36415548       3.98245071
C       -4.65079139       4.70642279       4.68551646
C       -5.77684532       3.85468618       4.69780569
C       -5.75928373       2.64263035       4.00602026
C       -6.94539523       4.24007182       5.42725021
C       -7.92568664       4.56449455       6.03969703
C       -9.17440072       4.97993965       6.82043550
C      -10.15298099       5.30854908       7.43251237
C      -11.31862960       5.70334526       8.16150666
C      -11.32391366       6.93394109       8.85307248
C      -12.44817642       7.35701280       9.57789758
C      -13.55978853       6.53390160       9.59926816
C      -13.53115158       5.31275106       8.90347698
C      -12.43875148       4.87139620       8.18222091
C      -14.83942053       4.65355255       9.10169096
O      -15.18834297       3.58271313       8.65378308
C      -15.63987906       5.55759374       9.95418131
C      -14.84834729       6.68396725      10.24137248
C      -15.36354469       7.69713011      11.03071879
C      -16.67090000       7.55759075      11.51850111
C      -17.43923744       6.41667884      11.21325980
C      -16.92917400       5.39215695      10.41973148
Br     -19.19796053       6.27620215      11.89578740
H        0.63317399       2.42160876       1.08877099
H       -0.75554390       3.89187684       2.52379775
H       -2.58576485      -0.47868905       0.85866030
H       -2.63103080       5.03507918       3.98723340
H       -4.68153173       5.64898338       5.23079041
H       -6.60887697       1.96750948       3.99690258
H      -10.44130754       7.57170098       8.82687155
H      -12.43305268       8.30670756      10.10293796
H      -12.46554507       3.92009880       7.66094715
H      -14.78172781       8.58084189      11.27274050
H      -17.09078114       8.34579952      12.14072734
H      -17.50082844       4.50496373      10.17101508
C        0.88337129      -0.88337129       0.88337129
C        0.50829727      -2.22330359       1.10951673
C        1.29295360      -3.06379308       1.91395766
C        2.44433810      -2.54246030       2.47918337
C        2.79260615      -1.20160718       2.23527051
C        2.04090573      -0.35067308       1.44852911
C        4.05419709      -0.92579397       2.95867762
O        4.65978886       0.12413288       2.98405742
C        4.42632783      -2.18390664       3.64216725
C        3.44273517      -3.14289146       3.33890731
C        3.55217975      -4.42110308       3.85859005
C        4.65460458      -4.71051406       4.67761199
C        5.62942507      -3.73138366       4.96852847
C        5.52072801      -2.44215439       4.44505193
C        6.73784024      -4.06661143       5.80826559
C        7.66778568      -4.34901230       6.51308024
C        8.85261864      -4.71097433       7.41118291
C        9.78156080      -4.99764572       8.11483593
C       10.88859759      -5.34240688       8.95247704
C       10.98806075      -6.65136921       9.47149727
C       12.05929946      -7.02859207      10.29519527
C       13.02306594      -6.08075205      10.58914031
C       12.90267252      -4.78344594      10.06126116
C       11.85946912      -4.38470175       9.24819772
C       14.06077029      -3.99720404      10.53668972
O       14.30078064      -2.83531664      10.28874189
C       14.86996658      -4.90697532      11.37471221
C       14.22526010      -6.15668818      11.39173873
C       14.77934871      -7.20098809      12.11105680
C       15.97668543      -6.96753715      12.80276929
C       16.59882447      -5.70388376      12.76646785
C       16.04861233      -4.64715827      12.04529184
Br      18.21319129      -5.44007545      13.71668334
H       -0.39980633      -2.61862628       0.65838581
H        0.99509742      -4.09420475       2.08191631
H        2.35162049       0.67628665       1.29040226
H        2.81454747      -5.19028756       3.64850835
H        4.75493117      -5.71196473       5.09440961
H        6.25374433      -1.66880994       4.65073476
H       10.22168054      -7.38709397       9.23110556
H       12.11836132      -8.03996044      10.68437645
H       11.81111788      -3.37081168       8.86466145
H       14.30978325      -8.17888048      12.14664647
H       16.42538924      -7.77871211      13.37320665
H       16.50856443      -3.66617071      12.00207210
