54
Properties=species:S:1:pos:R:3 pbc="F F F"
C        1.82103228       1.82103228      -1.82103228
O        1.08311539       2.95599668      -2.22984442
C        1.86612153       3.80059376      -3.05190549
Br       0.80725110       5.33773907      -3.58076908
H        2.12157132       1.21268413      -2.67834816
H        2.68752087       2.10662195      -1.21848606
H        2.16827703       3.29030207      -3.97162028
H        2.73689994       4.18440787      -2.51150907
C       -1.82103228      -1.82103228      -1.82103228
O       -1.01413948      -2.78270124      -2.47211576
C       -1.79506553      -3.62143464      -3.30212061
Br      -0.64034107      -4.91858905      -4.16682914
H       -2.31096527      -1.16031470      -2.54132364
H       -2.55298120      -2.29685061      -1.16279708
H       -2.28330610      -3.04963747      -4.09725581
H       -2.52789319      -4.18674338      -2.71818031
C       -1.82103228       1.82103228       1.82103228
O       -2.95257912       1.08097184       2.23540552
C       -3.79814614       1.86458634       3.05588830
Br      -5.32914002       0.80185763       3.59476160
H       -2.11086746       2.68492618       1.21680997
H       -1.21108408       2.12582527       2.67571954
H       -4.18725827       2.73086223       2.51207888
H       -3.28652930       2.17373622       3.97255137
C        1.82103228      -1.82103228       1.82103228
O        2.97055043      -1.09271838       2.20568768
C        3.81669084      -1.87674285       3.02518710
Br       5.37261789      -0.83026516       3.52287620
H        2.08755923      -2.69883948       1.22620490
H        1.22009819      -2.10256658       2.68996412
H        4.18339741      -2.75756744       2.48923452
H        3.31498493      -2.16322927       3.95460268
C       -0.00445707       0.01189536      -1.78238275
H       -0.66409135       0.67374010      -2.43557963
H        0.65740317      -0.63156657      -2.45157240
C       -0.90989263      -0.90692880      -0.91072765
C        0.90977584       0.90977584      -0.90977584
C       -0.00465871       1.77757030       0.00794375
H       -0.66225468       2.44313916      -0.64384735
H        0.64322798       2.43503045       0.67728295
C       -1.78241447       0.00034974      -0.00472694
H       -2.45427497      -0.65498947       0.64260836
H       -2.43311707       0.67328779      -0.65473579
C       -0.91132561       0.90220522       0.91563759
C       -0.01476271      -0.02253852       1.78660255
H       -0.67934791      -0.69751639       2.42135241
H        0.63392994       0.61504881       2.47327442
C        0.01484550      -1.77751727      -0.01636693
H        0.67870853      -2.42144646      -0.68295456
H       -0.62264859      -2.45592969       0.64226336
C        1.78714474       0.01002794       0.00389507
H        2.44202412       0.67113390       0.66197326
H        2.45385902      -0.65136977      -0.64189061
C        0.91606151      -0.90478549       0.90901405
