62
Properties=species:S:1:pos:R:3 pbc="F F F"
C        1.82103228       1.82103228      -1.82103228
O        1.08311539       2.95599668      -2.22984442
C        1.86612153       3.80059376      -3.05190549
H        2.12157132       1.21268413      -2.67834816
H        2.68752087       2.10662195      -1.21848606
H        2.16827703       3.29030207      -3.97162028
H        2.73689994       4.18440787      -2.51150907
C        1.08016827       4.94154957      -3.44445783
C        0.42193242       5.89710005      -3.77322041
Br      -0.64237928       7.44214437      -4.30480170
C       -1.82103228      -1.82103228      -1.82103228
O       -1.00016029      -2.59675397      -2.67204223
C       -1.78080671      -3.42925208      -3.50856200
H       -2.46691097      -1.15091439      -2.39477825
H       -2.40814311      -2.45417106      -1.15031472
H       -2.42450549      -2.83832444      -4.16736945
H       -2.36814145      -4.14252413      -2.92215131
C       -0.90914807      -4.20087842      -4.35614917
C       -0.17913397      -4.84711549      -5.06600343
Br       1.00123710      -5.89202616      -6.21377772
C       -1.82103228       1.82103228       1.82103228
O       -2.86367731       1.03756419       2.36771498
C       -3.70639402       1.81964253       3.19258423
H       -2.21471159       2.61598060       1.18191142
H       -1.17795206       2.22930687       2.60536995
H       -4.19486703       2.61459745       2.62073490
H       -3.15720513       2.23006895       4.04554281
C       -4.75124641       0.98627100       3.72865826
C       -5.62631028       0.28832234       4.17762026
Br      -7.04121456      -0.84020162       4.90355385
C        1.82103228      -1.82103228       1.82103228
O        2.82734514      -1.02545088       2.41616046
C        3.66889170      -1.80708970       3.24263938
H        2.25276482      -2.58775883       1.17207996
H        1.16879764      -2.26716696       2.57666427
H        4.19357890      -2.57314598       2.66347450
H        3.10873248      -2.25475808       4.06932632
C        4.67633991      -0.96129535       3.82854040
C        5.52007779      -0.25294258       4.31923251
Br       6.88433058       0.89240394       5.11264014
C       -0.00445707       0.01189536      -1.78238275
H       -0.66409135       0.67374010      -2.43557963
H        0.65740317      -0.63156657      -2.45157240
C       -0.90989263      -0.90692880      -0.91072765
C        0.90977584       0.90977584      -0.90977584
C       -0.00465871       1.77757030       0.00794375
H       -0.66225468       2.44313916      -0.64384735
H        0.64322798       2.43503045       0.67728295
C       -1.78241447       0.00034974      -0.00472694
H       -2.45427497      -0.65498947       0.64260836
H       -2.43311707       0.67328779      -0.65473579
C       -0.91132561       0.90220522       0.91563759
C       -0.01476271      -0.02253852       1.78660255
H       -0.67934791      -0.69751639       2.42135241
H        0.63392994       0.61504881       2.47327442
C        0.01484550      -1.77751727      -0.01636693
H        0.67870853      -2.42144646      -0.68295456
H       -0.62264859      -2.45592969       0.64226336
C        1.78714474       0.01002794       0.00389507
H        2.44202412       0.67113390       0.66197326
H        2.45385902      -0.65136977      -0.64189061
C        0.91606151      -0.90478549       0.90901405
