142
Properties=species:S:1:pos:R:3 pbc="F F F"
C        1.82626202       1.82626202      -1.82626202
C        1.10767005       3.10776572      -2.24642875
N        0.89466489       4.08277744      -1.14622588
C       -0.51935711       4.23249610      -0.72397451
C       -0.88280053       5.48861914       0.05882770
C        2.00439250       4.55889041      -0.45869121
C        2.01458132       4.79872325       0.91789531
C        3.13712255       5.32079940       1.58401847
C        4.31917418       5.57584182       0.89005916
C        5.52826101       6.13270294       1.57959559
C        4.35083093       5.31649614      -0.47500102
C        3.21117858       4.82677940      -1.13385025
H        2.05241841       1.21537369      -2.70538154
H        2.75182594       1.99818031      -1.27265569
H        0.14448326       2.83830517      -2.69906599
H        1.66560050       3.59097566      -3.05663075
H       -0.83999958       3.34255910      -0.17207931
H       -1.11525155       4.24610253      -1.64813223
H       -0.39066422       6.39160117      -0.30483283
H       -0.71404114       5.36956237       1.13085349
H        1.15598660       4.54971357       1.53270358
H        3.07598322       5.51124340       2.65287516
H        6.40375482       5.50693140       1.37502419
H        5.39270736       6.16778627       2.66507420
H        5.72631475       7.15081183       1.22845634
H        5.25518360       5.49964878      -1.05092694
H        3.29189869       4.68042826      -2.20398962
C       -2.29975653       5.72864931      -0.03184319
C       -3.48645719       5.92967457      -0.10778005
Br      -5.40525177       6.25471541      -0.23056354
C       -1.82626202      -1.82626202      -1.82626202
C       -1.13141410      -3.13673032      -2.19372009
N       -0.97310171      -4.08727467      -1.06329183
C        0.42498998      -4.26234262      -0.59976086
C        0.73438390      -5.50616799       0.22479318
C       -2.11259767      -4.51592708      -0.39344937
C       -2.16490594      -4.71864169       0.98813837
C       -3.31787581      -5.19346347       1.63743579
C       -4.48789185      -5.43613942       0.91907443
C       -5.72888224      -5.94285148       1.59036535
C       -4.47717935      -5.21253203      -0.45261671
C       -3.30816145      -4.77029757      -1.09334920
H       -2.01315995      -1.23335544      -2.72665824
H       -2.77013800      -1.95928039      -1.29324355
H       -0.14996273      -2.90452292      -2.62736877
H       -1.68080448      -3.62671533      -3.00568710
H        0.75480177      -3.36663658      -0.06280402
H        1.04409936      -4.31603831      -1.50704426
H        0.22796296      -6.40544155      -0.12829119
H        0.54108574      -5.35424205       1.28848856
H       -1.31622897      -4.47570718       1.61893957
H       -3.28960070      -5.35687641       2.71212566
H       -6.58178192      -5.30023839       1.34635827
H       -5.62253528      -5.95250002       2.67961587
H       -5.94481751      -6.96447254       1.26061982
H       -5.37083676      -5.38743099      -1.04749156
H       -3.35714560      -4.65047286      -2.16869810
C        2.14631554      -5.78523108       0.17817958
C        3.32880829      -6.01894641       0.13914069
Br       5.24079906      -6.39684435       0.07601811
C       -1.82626202       1.82626202       1.82626202
C       -3.28450333       1.80755117       1.36981002
N       -3.98877461       0.52241357       1.61248003
C       -4.30105049      -0.24788166       0.38394466
C       -5.37794398      -1.32107430       0.49012124
C       -4.06371691       0.04350493       2.91475228
C       -3.95919428      -1.30995429       3.24616928
C       -4.08055981      -1.77422755       4.56757123
C       -4.26322758      -0.87877961       5.62050886
C       -4.39546350      -1.35120904       7.03711391
C       -4.33838512       0.47751026       5.32643271
C       -4.24934615       0.92454231       3.99791976
H       -1.41282643       2.83433150       1.72601569
H       -1.67925942       1.48889889       2.85450362
H       -3.32164496       2.05850934       0.30170013
H       -3.83195184       2.61986646       1.86138861
H       -3.38312540      -0.67935700      -0.02912957
H       -4.65038459       0.48570584      -0.35710722
H       -6.23015062      -1.03000859       1.10562775
H       -4.97468070      -2.27777297       0.82776002
H       -3.73923253      -2.05351918       2.48728324
H       -4.01666983      -2.84252968       4.76021130
H       -3.68120512      -0.82612316       7.68058007
H       -4.19402138      -2.42340369       7.12480174
H       -5.41062926      -1.16481009       7.40285107
H       -4.47755877       1.20770610       6.12049444
H       -4.35174460       1.99031105       3.83426091
C       -5.89996983      -1.62132710      -0.81790677
C       -6.33716647      -1.87278881      -1.91338023
Br      -7.04407647      -2.27938113      -3.68466816
C        1.82626202      -1.82626202       1.82626202
C        3.30417384      -1.45944504       1.69824565
N        3.66836672      -0.15243831       2.30286318
C        4.01884520       0.90201464       1.32028293
C        4.80987822       2.09845334       1.83556604
C        3.41390561       0.04632219       3.65439071
C        2.97024444       1.26029914       4.18546397
C        2.76022080       1.44897862       5.56266130
C        2.94270347       0.39688449       6.45913786
C        2.72493361       0.57519349       7.93162825
C        3.35224825      -0.83278247       5.95729737
C        3.59096151      -0.99777810       4.58306861
H        1.65870587      -2.84644451       1.46802325
H        1.43561105      -1.74424135       2.84280954
H        3.57779845      -1.46894604       0.63510993
H        3.91721171      -2.24990264       2.14609256
H        3.11621559       1.24539009       0.80381334
H        4.63807032       0.41322119       0.55413409
H        5.58459824       1.83603953       2.55721107
H        4.16151062       2.87771131       2.24086844
H        2.73304247       2.09774576       3.53769987
H        2.43987453       2.42496425       5.91944118
H        2.03726596      -0.18944187       8.30895420
H        2.28960883       1.55326733       8.15907793
H        3.67756561       0.49441153       8.46551616
H        3.50281932      -1.67878023       6.62415976
H        3.94280112      -1.97077827       4.26273717
C        5.47513226       2.75381595       0.73941965
C        6.03228252       3.30268214      -0.17860295
Br       6.93314737       4.19015234      -1.66296785
C       -0.00445707       0.01189536      -1.78238275
H       -0.66409135       0.67374010      -2.43557963
H        0.65740317      -0.63156657      -2.45157240
C       -0.90989263      -0.90692880      -0.91072765
C        0.90977584       0.90977584      -0.90977584
C       -0.00465871       1.77757030       0.00794375
H       -0.66225468       2.44313916      -0.64384735
H        0.64322798       2.43503045       0.67728295
C       -1.78241447       0.00034974      -0.00472694
H       -2.45427497      -0.65498947       0.64260836
H       -2.43311707       0.67328779      -0.65473579
C       -0.91132561       0.90220522       0.91563759
C       -0.01476271      -0.02253852       1.78660255
H       -0.67934791      -0.69751639       2.42135241
H        0.63392994       0.61504881       2.47327442
C        0.01484550      -1.77751727      -0.01636693
H        0.67870853      -2.42144646      -0.68295456
H       -0.62264859      -2.45592969       0.64226336
C        1.78714474       0.01002794       0.00389507
H        2.44202412       0.67113390       0.66197326
H        2.45385902      -0.65136977      -0.64189061
C        0.91606151      -0.90478549       0.90901405
