69
Properties=species:S:1:pos:R:3 pbc="F F F"
C        0.00000000       0.00000000       0.00000000
C        0.91080980       0.91080980      -0.91080980
O        1.40860911       0.14192554      -1.99209020
C        2.19722613       0.93985926      -2.87702107
C        2.75895002       0.05788323      -3.99214433
O        3.89673858      -0.65737175      -3.50461658
C        4.41105278      -1.53732483      -4.48962999
H        1.72378965       1.28501509      -0.28215215
H        0.27983856       1.73124580      -1.26656339
H        3.01252330       1.41066655      -2.31591327
H        1.55442306       1.71186264      -3.31347304
H        3.07847813       0.68807350      -4.82855172
H        1.99881008      -0.65435982      -4.33439389
H        4.71269208      -0.99216707      -5.38871768
H        3.69466053      -2.32653783      -4.72969456
C        5.59473584      -2.17864315      -3.97854756
C        6.58607039      -2.71574725      -3.55051603
Br       8.18897453      -3.58419914      -2.85842525
C       -0.91080980      -0.91080980      -0.91080980
O       -1.21906134      -0.21648772      -2.10707578
C       -1.99946757      -1.02450333      -2.99013557
C       -2.35581151      -0.21571505      -4.23745102
O       -3.45297293       0.65239048      -3.94340097
C       -3.77502592       1.46839799      -5.05673001
H       -1.81506268      -1.13715883      -0.33873538
H       -0.33899483      -1.82071405      -1.11793887
H       -2.90977233      -1.35338611      -2.47594466
H       -1.40311940      -1.89612502      -3.28051431
H       -2.65881793      -0.89735428      -5.03893113
H       -1.49548568       0.38053409      -4.56389256
H       -4.04535684       0.86259375      -5.92647960
H       -2.95962477       2.15580647      -5.29399896
C       -4.92767527       2.27019088      -4.73715585
C       -5.89301910       2.94169242      -4.46951250
Br      -7.45389843       4.02745363      -4.03675583
C       -0.91080980       0.91080980       0.91080980
O       -0.59616545       2.27214181       0.67431759
C       -1.43555626       3.13957081       1.43897940
C       -1.02159562       4.59101526       1.19636670
O        0.13296288       4.89366597       1.98328032
C        0.58931319       6.21327015       1.73940097
H       -0.71042345       0.63146232       1.94907113
H       -1.94784164       0.69159805       0.63820806
H       -1.34634712       2.89024886       2.50250713
H       -2.47097569       2.99753478       1.11124827
H       -1.83426064       5.25743697       1.50340573
H       -0.79287836       4.75008194       0.13588386
H       -0.18450151       6.94959767       1.97514352
H        0.94145295       6.32777587       0.71149435
C        1.70516391       6.49484346       2.60496069
C        2.63968889       6.73066111       3.32986696
Br       4.15073675       7.11195831       4.50197908
C        0.91080980      -0.91080980       0.91080980
O        0.46947875      -2.25428541       0.81886068
C        1.30016785      -3.12747020       1.58646841
C        0.75250471      -4.55232254       1.50415034
O       -0.35001733      -4.69026569       2.40373505
C       -0.92938757      -5.98062416       2.31212134
H        0.82393784      -0.53338121       1.93363784
H        1.93449986      -0.80459954       0.53854835
H        1.32349782      -2.78747122       2.62813407
H        2.31133902      -3.10215015       1.16626957
H        1.53304365      -5.26002060       1.80203910
H        0.42090545      -4.77492809       0.48301061
H       -0.19916762      -6.76005670       2.54835361
H       -1.37718433      -6.14569973       1.32930187
C       -1.98498398      -6.09472476       3.28489946
C       -2.86904597      -6.19028401       4.09960114
Br      -4.29849944      -6.34479524       5.41690485
