82
Properties=species:S:1:pos:R:3 pbc="F F F"
C        1.82071383       1.82071383      -1.82071383
O        2.31851313       1.05182956      -2.90199423
C        3.10713015       1.84976329      -3.78692509
C        3.66885404       0.96778726      -4.90204836
O        4.80664260       0.25253227      -4.41452060
C        5.32095681      -0.62742081      -5.39953401
Br       6.91682656      -1.49206148      -4.71048048
H        2.63369368       2.19491911      -1.19205617
H        1.18974259       2.64114982      -2.17646741
H        3.92242732       2.32057057      -3.22581729
H        2.46432709       2.62176666      -4.22337706
H        3.98838215       1.59797752      -5.73845574
H        2.90871410       0.25554421      -5.24429791
H        5.62259611      -0.08226305      -6.29862171
H        4.60456456      -1.41663380      -5.63959858
C       -1.82071383      -1.82071383      -1.82071383
O       -1.95626779      -1.21936289      -3.09670624
C       -2.73038188      -2.03692756      -3.97650909
C       -2.89828459      -1.32274953      -5.31765553
O       -3.92913991      -0.33851638      -5.20603919
C       -4.07399605       0.39260472      -6.41167868
Br      -5.54951370       1.64069434      -6.22642621
H       -2.78870331      -1.91207664      -1.31988902
H       -1.32235525      -2.79245389      -1.89255068
H       -3.70910980      -2.23495638      -3.52474900
H       -2.19681199      -2.98076814      -4.13189068
H       -3.19403636      -2.04871573      -6.08206332
H       -1.95996556      -0.83735635      -5.61123432
H       -4.32418669      -0.26750371      -7.24726437
H       -3.17929269       0.98079610      -6.62903275
C       -1.82071383       1.82071383       1.82071383
O       -1.37092490       3.16206530       1.73934672
C       -2.20098880       4.03562083       2.50720890
C       -1.64444849       5.45765817       2.43658299
O       -0.54649086       5.58374390       3.34346072
C        0.04101700       6.87115875       3.26292826
Br       1.45727023       7.00879981       4.58371599
H       -1.74214333       1.43674732       2.84177831
H       -2.84278508       1.72278033       1.44179441
H       -2.23250733       3.68962561       3.54668225
H       -3.20977975       4.01878326       2.08090780
H       -2.42255234       6.16820679       2.73405628
H       -1.30548603       5.68431314       1.41875706
H       -0.68598035       7.65350447       3.49946995
H        0.49560597       7.03936990       2.28376541
C        1.82071383      -1.82071383       1.82071383
O        1.25915382      -3.11975887       1.89342423
C        2.08027984      -3.99800710       2.66553160
C        1.40717740      -5.36696446       2.76454779
O        0.38619267      -5.32319973       3.76430308
C       -0.30770149      -6.55657558       3.84419592
Br      -1.60944788      -6.46316352       5.28152992
H        1.86289081      -1.35050440       2.80727375
H        2.81027161      -1.84334727       1.35374095
H        2.23032373      -3.57365048       3.66484097
H        3.04598670      -4.10380961       2.15967450
H        2.14866735      -6.11663228       3.05951578
H        0.96335539      -5.64419089       1.80100995
H        0.37194154      -7.37795985       4.08905338
H       -0.85825017      -6.76254891       2.92323059
C       -0.00445707       0.01189536      -1.78238275
H       -0.66409135       0.67374010      -2.43557963
H        0.65740317      -0.63156657      -2.45157240
C       -0.90989263      -0.90692880      -0.91072765
C        0.90977584       0.90977584      -0.90977584
C       -0.00465871       1.77757030       0.00794375
H       -0.66225468       2.44313916      -0.64384735
H        0.64322798       2.43503045       0.67728295
C       -1.78241447       0.00034974      -0.00472694
H       -2.45427497      -0.65498947       0.64260836
H       -2.43311707       0.67328779      -0.65473579
C       -0.91132561       0.90220522       0.91563759
C       -0.01476271      -0.02253852       1.78660255
H       -0.67934791      -0.69751639       2.42135241
H        0.63392994       0.61504881       2.47327442
C        0.01484550      -1.77751727      -0.01636693
H        0.67870853      -2.42144646      -0.68295456
H       -0.62264859      -2.45592969       0.64226336
C        1.78714474       0.01002794       0.00389507
H        2.44202412       0.67113390       0.66197326
H        2.45385902      -0.65136977      -0.64189061
C        0.91606151      -0.90478549       0.90901405
