98
Properties=species:S:1:pos:R:3 pbc="F F F"
C        1.82105479       1.82105479      -1.82105479
O        1.87340124       1.27097766      -3.12437801
C        2.68789574       2.05990878      -3.98569659
C        2.69502492       1.47241566      -5.30476561
C        2.70090559       0.98818834      -6.39194605
C        2.70766409       0.43161288      -7.64159323
C        2.71354611      -0.05260114      -8.72877831
C        2.72067395      -0.64010756     -10.04784270
O        1.42864666      -0.58028932     -10.65172426
C        0.50210121      -1.46614353     -10.04498570
Br      -1.14703683      -1.45898085     -11.07341378
H        2.81189232       1.84204413      -1.35882708
H        1.36854800       2.81653122      -1.82780012
H        3.70643793       2.10217381      -3.58330536
H        2.29079767       3.08056372      -4.02838118
H        3.07446540      -1.67717318     -10.03232170
H        3.40070499      -0.08213292     -10.69984643
H        0.23739458      -1.14420498      -9.03312675
H        0.86854980      -2.49707958     -10.04828061
C       -1.82105479      -1.82105479      -1.82105479
O       -1.61541303      -3.17825590      -1.47508799
C       -2.41739387      -4.04218781      -2.27391943
C       -2.18917988      -5.41040556      -1.87262075
C       -2.00107121      -6.53809846      -1.54187032
C       -1.78486542      -7.83430919      -1.16169561
C       -1.59677024      -8.96200418      -0.83094885
C       -1.36854276     -10.33021984      -0.42964649
O       -1.83203877     -10.56748042       0.89943760
C       -1.02406582      -9.93597936       1.87910179
Br      -1.61454967     -10.49668801       3.64384158
H       -1.52919630      -1.62670348      -2.85686375
H       -2.85577278      -1.51721023      -1.63989633
H       -2.15518548      -3.90726669      -3.32946491
H       -3.47399903      -3.78128310      -2.14446043
H       -0.31175149     -10.60928292      -0.50857951
H       -1.92588264     -11.00784621      -1.08468964
H       -1.12843687      -8.84704275       1.84916328
H        0.02471407     -10.23482856       1.79036365
C       -1.82105479       1.82105479       1.82105479
O       -1.45334922       3.17596644       1.63944126
C       -2.24915747       4.03957995       2.44476369
C       -1.85229517       5.40826493       2.21164610
C       -1.52518596       6.53634131       2.01951272
C       -1.14920800       7.83299403       1.79866819
C       -0.82211233       8.96107354       1.60653740
C       -0.42523648      10.32975539       1.37341722
O       -0.72316055      10.73836808       0.03855296
C        0.11936243      10.12131036      -0.92100455
Br      -0.22834888      10.90449666      -2.66544944
H       -1.65843504       1.50048820       2.85384029
H       -2.85526650       1.64520974       1.51240310
H       -2.11234480       3.77908289       3.50048941
H       -3.30637889       3.90365322       2.18971045
H        0.63915058      10.48840708       1.58035741
H       -0.98141666      10.99696978       2.04003205
H       -0.08981907       9.05125114      -1.01475387
H        1.17666185      10.29946198      -0.70304930
C        1.82105479      -1.82105479       1.82105479
O        2.06466059      -1.15687144       3.04722489
C        2.88660395      -1.94156279       3.90533438
C        3.09073825      -1.23401786       5.14745009
C        3.25899238      -0.65084415       6.17120346
C        3.45238786       0.01946436       7.34794672
C        3.62064253       0.60262521       8.37170596
C        3.82477629       1.31018299       9.61381580
O        2.60472808       1.44675838      10.34211190
C        1.70834690       2.36380017       9.73639666
Br       0.18519268       2.63138189      10.91358531
H        2.75035404      -1.99187831       1.27053118
H        1.27818728      -2.75735106       1.97734100
H        3.84765032      -2.13063744       3.41362933
H        2.39997868      -2.90522371       4.09454017
H        4.27301684       2.29731259       9.45390967
H        4.51356279       0.74824773      10.25310343
H        1.30758672       1.97606090       8.79479052
H        2.17052883       3.34532506       9.59454706
C       -0.00445707       0.01189536      -1.78238275
H       -0.66409135       0.67374010      -2.43557963
H        0.65740317      -0.63156657      -2.45157240
C       -0.90989263      -0.90692880      -0.91072765
C        0.90977584       0.90977584      -0.90977584
C       -0.00465871       1.77757030       0.00794375
H       -0.66225468       2.44313916      -0.64384735
H        0.64322798       2.43503045       0.67728295
C       -1.78241447       0.00034974      -0.00472694
H       -2.45427497      -0.65498947       0.64260836
H       -2.43311707       0.67328779      -0.65473579
C       -0.91132561       0.90220522       0.91563759
C       -0.01476271      -0.02253852       1.78660255
H       -0.67934791      -0.69751639       2.42135241
H        0.63392994       0.61504881       2.47327442
C        0.01484550      -1.77751727      -0.01636693
H        0.67870853      -2.42144646      -0.68295456
H       -0.62264859      -2.45592969       0.64226336
C        1.78714474       0.01002794       0.00389507
H        2.44202412       0.67113390       0.66197326
H        2.45385902      -0.65136977      -0.64189061
C        0.91606151      -0.90478549       0.90901405
