106
Properties=species:S:1:pos:R:3 pbc="F F F"
C        1.82105479       1.82105479      -1.82105479
O        1.87340124       1.27097766      -3.12437801
C        2.68789574       2.05990878      -3.98569659
C        2.69502492       1.47241566      -5.30476561
C        2.70090559       0.98818834      -6.39194605
C        2.70766409       0.43161288      -7.64159323
C        2.71354611      -0.05260114      -8.72877831
C        2.72067395      -0.64010756     -10.04784270
O        1.42864666      -0.58028932     -10.65172426
C        0.50210121      -1.46614353     -10.04498570
H        2.81189232       1.84204413      -1.35882708
H        1.36854800       2.81653122      -1.82780012
H        3.70643793       2.10217381      -3.58330536
H        2.29079767       3.08056372      -4.02838118
H        3.07446540      -1.67717318     -10.03232170
H        3.40070499      -0.08213292     -10.69984643
H        0.23739458      -1.14420498      -9.03312675
H        0.86854980      -2.49707958     -10.04828061
C       -0.71976774      -1.46083660     -10.80696214
C       -1.74308299      -1.45639205     -11.44511741
Br      -3.39769720      -1.44920558     -12.47696051
C       -1.82105479      -1.82105479      -1.82105479
O       -2.72248108      -2.54346740      -1.00280844
C       -3.56754206      -3.38387347      -1.78208559
C       -4.48009980      -4.08348005      -0.90862634
C       -5.23222560      -4.66010578      -0.18870861
C       -6.09675400      -5.32289691       0.63878070
C       -6.84888884      -5.89952201       1.35868757
C       -7.76143755      -6.59912922       2.23215768
O       -8.66871860      -5.69832124       2.86695824
C       -8.03767950      -4.88940761       3.84614373
H       -1.15298096      -2.49379599      -2.36598659
H       -2.35274455      -1.15444740      -2.50568739
H       -2.95262581      -4.09903714      -2.34025414
H       -4.12546897      -2.77316349      -2.50111011
H       -7.23254324      -7.18751083       2.99044016
H       -8.36783194      -7.30151257       1.65092601
H       -7.35724983      -4.16197177       3.39290525
H       -7.52418751      -5.49472697       4.59916365
C       -9.04163707      -4.12855170       4.54383097
C       -9.88245153      -3.49133487       5.12814403
Br     -11.24197741      -2.46100915       6.07292883
C       -1.82105479       1.82105479       1.82105479
O       -1.67549052       1.42186528       3.17140112
C       -2.48223097       2.21648018       4.03478996
C       -2.28607268       1.78678333       5.39935018
C       -2.12440159       1.43261182       6.52402658
C       -1.93857126       1.02552746       7.81677149
C       -1.77690255       0.67136947       8.94145125
C       -1.58074188       0.24165909      10.30600811
O       -0.24890295       0.50306389      10.74811475
C        0.70587530      -0.34654535      10.13336403
H       -2.85001232       1.68675162       1.47599960
H       -1.48760268       2.85195949       1.67331716
H       -3.53484855       2.10722012       3.74984842
H       -2.20271877       3.27068880       3.92633500
H       -1.81278560      -0.82118801      10.43801632
H       -2.24963790       0.79787456      10.97090604
H        0.82632432      -0.11743853       9.07007918
H        0.46255788      -1.40247742      10.28478613
C        1.99092313      -0.12806065      10.74534157
C        3.06715068       0.05492029      11.25787276
Br       4.80731962       0.35078500      12.08659235
C        1.82105479      -1.82105479       1.82105479
O        2.86034344      -2.37373964       1.03467384
C        3.71089669      -3.20763302       1.81497141
C        4.76394193      -3.73120992       0.97705434
C        5.63185971      -4.16275102       0.28642926
C        6.62948227      -4.65877697      -0.50738903
C        7.49740795      -5.09031772      -1.19800239
C        8.55044529      -5.61389497      -2.03593118
O        9.41717945      -4.57588789      -2.49298574
C        8.79993735      -3.73390256      -3.45289653
H        1.17676085      -2.60245861       2.23354407
H        2.21949207      -1.18059780       2.61278946
H        3.12230508      -4.02757913       2.24203289
H        4.13778829      -2.62361599       2.63833829
H        8.15365147      -6.16924643      -2.89328399
H        9.16868280      -6.31289700      -1.46316130
H        8.01218068      -3.11985964      -3.00572398
H        8.41961690      -4.30516741      -4.30503348
C        9.78210720      -2.81955377      -3.97530317
C       10.60467444      -2.05378666      -4.41281872
Br      11.93469610      -0.81560601      -5.12024438
C       -0.00445707       0.01189536      -1.78238275
H       -0.66409135       0.67374010      -2.43557963
H        0.65740317      -0.63156657      -2.45157240
C       -0.90989263      -0.90692880      -0.91072765
C        0.90977584       0.90977584      -0.90977584
C       -0.00465871       1.77757030       0.00794375
H       -0.66225468       2.44313916      -0.64384735
H        0.64322798       2.43503045       0.67728295
C       -1.78241447       0.00034974      -0.00472694
H       -2.45427497      -0.65498947       0.64260836
H       -2.43311707       0.67328779      -0.65473579
C       -0.91132561       0.90220522       0.91563759
C       -0.01476271      -0.02253852       1.78660255
H       -0.67934791      -0.69751639       2.42135241
H        0.63392994       0.61504881       2.47327442
C        0.01484550      -1.77751727      -0.01636693
H        0.67870853      -2.42144646      -0.68295456
H       -0.62264859      -2.45592969       0.64226336
C        1.78714474       0.01002794       0.00389507
H        2.44202412       0.67113390       0.66197326
H        2.45385902      -0.65136977      -0.64189061
C        0.91606151      -0.90478549       0.90901405
