82
Properties=species:S:1:pos:R:3 pbc="F F F"
N        0.34942978       3.74113735      -1.42292897
C        1.44235287       3.13194489      -2.07661573
C        1.79896751       1.79896751      -1.79896751
C        2.95712179       1.22745744      -2.33840759
C        3.80389812       1.99171479      -3.13787107
C        3.49931281       3.32772720      -3.38859542
C        2.34006307       3.89492179      -2.84696702
H       -0.38217249       3.08198624      -1.16942574
H       -0.00001786       4.56254962      -1.90989628
H        3.21049753       0.19047565      -2.13095399
H        4.70648723       1.55085015      -3.55362596
H        4.17423192       3.92394344      -3.99773923
C        2.08184468       5.28385512      -3.12587105
C        1.86558678       6.44708679      -3.35945318
Br       1.51591604       8.32793401      -3.73713573
N        0.15159894      -3.02399409      -2.64110096
C       -1.23242687      -2.74744592      -2.67104069
C       -1.79896751      -1.79896751      -1.79896751
C       -3.18422185      -1.61269673      -1.72606825
C       -4.03473871      -2.40020713      -2.49853814
C       -3.50217235      -3.37945758      -3.33400549
C       -2.11626884      -3.56211392      -3.40356911
H        0.71245294      -2.22485528      -2.35683715
H        0.48830678      -3.47025067      -3.49048415
H       -3.60731347      -0.86290658      -1.06170712
H       -5.11121980      -2.26028053      -2.43946301
H       -4.17242679      -4.00350761      -3.91998018
C       -1.62102402      -4.59844909      -4.27209774
C       -1.20625648      -5.46637980      -4.99949046
Br      -0.53561245      -6.86975035      -6.17562297
N       -3.56134805       0.09451411       1.85763395
C       -3.09670814       1.39239217       2.16181317
C       -1.79896751       1.79896751       1.79896751
C       -1.28023341       3.03195060       2.21080282
C       -2.03729213       3.86852032       3.02767153
C       -3.30602227       3.46853831       3.44107485
C       -3.82057134       2.23464471       3.02673582
H       -3.14688542      -0.29015467       1.01250874
H       -4.57504536       0.01769932       1.87968336
H       -0.28302817       3.34172384       1.90717515
H       -1.63399550       4.82437551       3.35259234
H       -3.88409732       4.11773578       4.09408149
C       -5.13081181       1.86485102       3.49590802
C       -6.22813820       1.55514881       3.88883973
Br      -8.00242216       1.05438653       4.52417708
N        3.16724822       0.12283822       2.46908612
C        2.91860490      -1.26678996       2.46551862
C        1.79896751      -1.79896751       1.79896751
C        1.46816253      -3.15520415       1.89962015
C        2.23092843      -4.00075313       2.70180243
C        3.31563026      -3.48935793       3.41064724
C        3.64261086      -2.13242997       3.30691104
H        2.82771535       0.59141849       1.63294264
H        4.13019791       0.35581111       2.69804124
H        0.61129123      -3.55679740       1.36383854
H        1.97245067      -5.05343304       2.78507964
H        3.89536713      -4.15071575       4.04983171
C        4.76435126      -1.65433171       4.07288788
C        5.70380885      -1.25392441       4.71439348
Br       7.22283231      -0.60649968       5.75165379
C       -0.00445707       0.01189536      -1.78238275
H       -0.66409135       0.67374010      -2.43557963
H        0.65740317      -0.63156657      -2.45157240
C       -0.90989263      -0.90692880      -0.91072765
C        0.90977584       0.90977584      -0.90977584
C       -0.00465871       1.77757030       0.00794375
H       -0.66225468       2.44313916      -0.64384735
H        0.64322798       2.43503045       0.67728295
C       -1.78241447       0.00034974      -0.00472694
H       -2.45427497      -0.65498947       0.64260836
H       -2.43311707       0.67328779      -0.65473579
C       -0.91132561       0.90220522       0.91563759
C       -0.01476271      -0.02253852       1.78660255
H       -0.67934791      -0.69751639       2.42135241
H        0.63392994       0.61504881       2.47327442
C        0.01484550      -1.77751727      -0.01636693
H        0.67870853      -2.42144646      -0.68295456
H       -0.62264859      -2.45592969       0.64226336
C        1.78714474       0.01002794       0.00389507
H        2.44202412       0.67113390       0.66197326
H        2.45385902      -0.65136977      -0.64189061
C        0.91606151      -0.90478549       0.90901405
