114
Properties=species:S:1:pos:R:3 pbc="F F F"
C        1.82813316       1.82813316      -1.82813316
C        3.03935352       1.06895669      -2.37036458
H        3.54003534       1.74040208      -3.07574339
C        4.04580100       0.64854214      -1.29164139
C        5.24883911      -0.14300779      -1.83149875
C        6.08474634       0.60059307      -2.87928611
H        5.47453370       0.82879983      -3.75969106
C        7.29509281      -0.23845361      -3.28306133
O        6.51118524       1.84192561      -2.30935711
O        2.62626566      -0.07202120      -3.12455672
H        2.11711675       2.69494040      -1.22850623
H        1.17167091       2.14650394      -2.64404139
H        3.55761880       0.00242871      -0.55357964
H        4.39571465       1.53632821      -0.75088163
H        4.90461294      -1.09853657      -2.24559751
H        5.88681630      -0.38387455      -0.97109581
H        7.01015520      -1.22697103      -3.65160084
H        8.02603701      -0.32807574      -2.47573480
H        7.10396403       2.26184995      -2.96024156
H        2.04186977      -0.59909958      -2.54793552
C        7.99217630       0.40713732      -4.36513663
C        8.57598372       0.94781972      -5.27137470
Br       9.51995094       1.82205744      -6.73668500
C       -1.82813316      -1.82813316      -1.82813316
C       -2.90841900      -1.02135366      -2.54890214
H       -3.40757809      -1.71104383      -3.23755890
C       -3.96046453      -0.41242461      -1.61309539
C       -5.02973063       0.42596346      -2.33356289
C       -5.83816895      -0.33881322      -3.38764335
H       -5.17788426      -0.70332869      -4.18181164
C       -6.92204745       0.56040392      -3.97805700
O       -6.43042841      -1.47732401      -2.75471555
O       -2.32289095       0.00109580      -3.35700604
H       -2.25067089      -2.60450690      -1.18538559
H       -1.13632702      -2.27989524      -2.54599398
H       -3.47900335       0.25639093      -0.89101473
H       -4.44026863      -1.20991881      -1.03273705
H       -4.56015710       1.30331151      -2.79482829
H       -5.71457061       0.80354177      -1.56300872
H       -6.51207951       1.48004481      -4.40275032
H       -7.70896186       0.79107258      -3.25580679
H       -7.00147585      -1.90431173      -3.42026796
H       -1.74332892       0.52791400      -2.77529079
C       -7.58040444      -0.12267444      -5.06137137
C       -8.13177841      -0.69475257      -5.96864716
Br      -9.02330350      -1.61975452      -7.43563537
C       -1.82813316       1.82813316       1.82813316
C       -1.13611000       3.13857312       2.20399167
H       -1.87973048       3.74589430       2.73055603
C        0.08660765       2.95961061       3.11298157
C        0.80272605       4.27409949       3.46595662
C       -0.07331463       5.30568774       4.18562315
H       -0.91402510       5.60045480       3.54854469
C        0.75476644       6.53223600       4.56223098
O       -0.61013591       4.69120496       5.36112709
O       -0.77183082       3.87306455       1.03390581
H       -2.09857963       1.23598839       2.70599536
H       -2.72003771       2.01907218       1.22310635
H        0.83166830       2.32523303       2.62006242
H       -0.21229327       2.43944119       4.03119004
H        1.22396941       4.71928480       2.55635849
H        1.65154923       4.01381563       4.11177116
H        1.24493508       6.98361316       3.69610693
H        1.48605501       6.31511229       5.34463880
H       -1.09803771       5.38442104       5.84359679
H       -0.23658693       3.27660407       0.47751471
C       -0.10653187       7.54802906       5.10988932
C       -0.82786921       8.39875576       5.56855317
Br      -1.99421067       9.77430887       6.31017384
C        1.82813316      -1.82813316       1.82813316
C        1.10487430      -3.09881856       2.27498193
H        1.84540566      -3.71387882       2.79689633
C       -0.07722608      -2.84422228       3.21898833
C       -0.82551758      -4.11887885       3.64396880
C        0.03945140      -5.15572262       4.36945150
H        0.84581153      -5.50269819       3.71451488
C       -0.81674202      -6.33768103       4.81876153
O        0.63948227      -4.52042525       5.50256045
O        0.67317984      -3.86001726       1.14560409
H        2.15059435      -1.21589979       2.67406924
H        2.69040039      -2.07214353       1.19967232
H       -0.81703712      -2.20091472       2.72974954
H        0.27260187      -2.30349479       4.10682783
H       -1.29460850      -4.57999710       2.76628528
H       -1.64086680      -3.80574537       4.30915898
H       -1.35331671      -6.80097784       3.98712389
H       -1.51127524      -6.06713704       5.61783427
H        1.12002997      -5.21357182       5.99245375
H        0.13930622      -3.26437122       0.58702826
C        0.02784024      -7.36421370       5.37239631
C        0.73517788      -8.22393481       5.83606545
Br       1.87888303      -9.61403113       6.58577923
C       -0.00445707       0.01189536      -1.78238275
H       -0.66409135       0.67374010      -2.43557963
H        0.65740317      -0.63156657      -2.45157240
C       -0.90989263      -0.90692880      -0.91072765
C        0.90977584       0.90977584      -0.90977584
C       -0.00465871       1.77757030       0.00794375
H       -0.66225468       2.44313916      -0.64384735
H        0.64322798       2.43503045       0.67728295
C       -1.78241447       0.00034974      -0.00472694
H       -2.45427497      -0.65498947       0.64260836
H       -2.43311707       0.67328779      -0.65473579
C       -0.91132561       0.90220522       0.91563759
C       -0.01476271      -0.02253852       1.78660255
H       -0.67934791      -0.69751639       2.42135241
H        0.63392994       0.61504881       2.47327442
C        0.01484550      -1.77751727      -0.01636693
H        0.67870853      -2.42144646      -0.68295456
H       -0.62264859      -2.45592969       0.64226336
C        1.78714474       0.01002794       0.00389507
H        2.44202412       0.67113390       0.66197326
H        2.45385902      -0.65136977      -0.64189061
C        0.91606151      -0.90478549       0.90901405
