162
Properties=species:S:1:pos:R:3 pbc="F F F"
C        1.78695085       1.78695085      -1.78695085
S        3.32746489       1.23028414      -2.29946328
C        3.56529936       2.65229639      -3.13615393
C        2.53733829       3.51173915      -3.05022013
C        1.45639844       3.06123463      -2.24266520
C        0.20019805       3.80627783      -1.93687178
C        2.71766858       4.71685902      -3.78024592
C        3.98627531       4.68349052      -4.37495874
S        4.83787172       3.20615587      -4.05536722
C        4.62756936       5.70294849      -5.16904894
S        5.14479611       7.16866562      -4.39841615
C        5.76269291       7.72760877      -5.83964731
C        5.60803978       6.87800281      -6.86772213
C        4.92358047       5.67748596      -6.53870984
C        4.57105051       4.56226985      -7.46775626
C        6.15907260       7.33256534      -8.09798148
C        6.69007118       8.59976967      -7.86656701
S        6.54012372       9.14493549      -6.24654682
C        6.16934995       6.59738537      -9.39635368
C        1.74494675       5.84331907      -3.90638281
H       -0.36627448       3.35904764      -1.11585791
H       -0.45021993       3.82900491      -2.81670922
H        0.42385770       4.83378716      -1.63444266
H        3.82608508       3.88641838      -7.03711725
H        5.46167307       3.97386059      -7.70922978
H        4.13838238       4.94953587      -8.39478215
H        6.49922479       5.56388518      -9.25326997
H        6.85129767       7.04025371     -10.12705488
H        5.16730307       6.59205942      -9.83653118
H        0.74115712       5.46845613      -4.12643306
H        2.00626324       6.52502447      -4.72139180
H        1.71299470       6.42271495      -2.97845333
C        7.32250437       9.42910912      -8.85945388
C        7.85216717      10.12368090      -9.69099664
Br       8.70858711      11.24674473     -11.03553095
C       -1.78695085      -1.78695085      -1.78695085
S       -2.88425928      -1.07487804      -2.89807500
C       -3.36789187      -2.59071339      -3.39514442
C       -2.73471738      -3.59558215      -2.76899805
C       -1.79565093      -3.18002604      -1.78462129
C       -0.96979189      -4.06327363      -0.91028215
C       -3.12013884      -4.89227860      -3.20235609
C       -4.12224574      -4.75064752      -4.17183132
S       -4.48883235      -3.09096506      -4.51959740
C       -4.85135534      -5.78737370      -4.86083776
S       -5.99395593      -6.74466030      -3.97326165
C       -6.39278909      -7.58061460      -5.35654531
C       -5.72195887      -7.18248266      -6.44932319
C       -4.78094375      -6.14460197      -6.21423055
C       -3.86590974      -5.51943939      -7.21572749
C       -6.07647698      -7.86976828      -7.64337416
C       -7.03537707      -8.82065351      -7.30037728
S       -7.47132000      -8.81945921      -5.64082681
C       -5.52835843      -7.62528238      -9.00944819
C       -2.57410560      -6.19736391      -2.72317912
H       -0.50439721      -3.52153973      -0.08269414
H       -0.17064848      -4.53218000      -1.49266572
H       -1.58639534      -4.84655545      -0.45913673
H       -3.06756208      -4.94130433      -6.74075429
H       -4.42557524      -4.84647249      -7.87271572
H       -3.37433003      -6.28369152      -7.82467885
H       -5.52274891      -6.55524923      -9.23838180
H       -6.11955063      -8.10522441      -9.79383122
H       -4.50576164      -8.00868010      -9.08145194
H       -1.48127468      -6.17139143      -2.68338020
H       -2.83999061      -7.02499578      -3.38769312
H       -2.96121073      -6.42729707      -1.72565518
C       -7.64543843      -9.75172659      -8.21390236
C       -8.15636481     -10.53150029      -8.97897961
Br      -8.98248956     -11.79232842     -10.21604482
C       -1.78695085       1.78695085       1.78695085
S       -1.53691488       3.48424317       1.83605428
C       -2.80146780       3.64156973       2.91071215
C       -3.39932063       2.47985945       3.22011749
C       -2.82625237       1.33625356       2.59779234
C       -3.25263182      -0.08287750       2.77359335
C       -4.49498215       2.60422440       4.11556698
C       -4.62155132       3.95460621       4.46856704
S       -3.45950857       4.96740928       3.67247696
C       -5.55794791       4.55343152       5.38818736
S       -5.39067549       4.23572148       7.08548090
C       -6.68479260       5.22950789       7.41564851
C       -7.23552606       5.79083906       6.32739960
C       -6.62915021       5.41016012       5.10046593
C       -7.03675366       5.83623776       3.72808520
C       -8.32356959       6.66576654       6.60028328
C       -8.52549481       6.65209494       7.97881811
S       -7.42526046       5.66086522       8.84548035
C       -9.10704748       7.45252363       5.60351789
C       -5.37409048       1.50503326       4.61552488
H       -2.52113193      -0.79469526       2.38219441
H       -4.20022300      -0.26041857       2.25568977
H       -3.37817735      -0.32038600       3.83429616
H       -6.58988746       5.20835099       2.95138225
H       -6.72925664       6.87048889       3.54501791
H       -8.12067025       5.75976246       3.60226769
H       -8.43942456       7.96946911       4.90748627
H       -9.72634594       8.22467891       6.06758142
H       -9.76900516       6.79165447       5.03523404
H       -5.68780686       0.85330970       3.79492975
H       -6.29069154       1.88645036       5.07553762
H       -4.84477264       0.90620320       5.36318713
C       -9.55105596       7.38485499       8.67515643
C      -10.40996342       7.99854153       9.25833977
Br     -11.79874413       8.99082076      10.20129790
C        1.78695085      -1.78695085       1.78695085
S        1.45801878      -3.46500153       1.93419202
C        2.76642530      -3.63422567       2.95309872
C        3.43464528      -2.49077870       3.17387359
C        2.88664140      -1.35095569       2.52270117
C        3.38946328       0.05153032       2.60541471
C        4.56706915      -2.62720542       4.02049896
C        4.64600696      -3.96363773       4.43507988
S        3.39746804      -4.95341160       3.74851517
C        5.59786141      -4.56410373       5.33760166
S        5.53252854      -4.15667772       7.02267162
C        6.79221261      -5.19777560       7.33996079
C        7.25921658      -5.83826764       6.25628051
C        6.61042814      -5.48701573       5.04233240
C        6.92676234      -5.99904731       3.67526696
C        8.31616793      -6.75310340       6.52034808
C        8.58825066      -6.68311446       7.88504274
S        7.58261671      -5.59658669       8.75240263
C        9.00909757      -7.62586432       5.52812711
C        5.52250747      -1.55119780       4.42094336
H        2.67428069       0.77982835       2.21417874
H        4.31700605       0.15549958       2.03398773
H        3.58003120       0.33332784       3.64538416
H        6.47189502      -5.38754166       2.89018402
H        6.56075696      -7.02398708       3.56001941
H        8.00532004      -5.98387355       3.49350682
H        8.28280018      -8.14126930       4.89231046
H        9.61312892      -8.40514383       6.00033352
H        9.67250310      -7.02768696       4.89570361
H        5.82527541      -0.95665232       3.55411858
H        6.44178302      -1.95599092       4.85490557
H        5.06138530      -0.89084178       5.16193590
C        9.61124248      -7.43250086       8.56732403
C       10.46799813      -8.06011196       9.13873461
Br      11.85329956      -9.07490604      10.06265719
C       -0.00445707       0.01189536      -1.78238275
H       -0.66409135       0.67374010      -2.43557963
H        0.65740317      -0.63156657      -2.45157240
C       -0.90989263      -0.90692880      -0.91072765
C        0.90977584       0.90977584      -0.90977584
C       -0.00465871       1.77757030       0.00794375
H       -0.66225468       2.44313916      -0.64384735
H        0.64322798       2.43503045       0.67728295
C       -1.78241447       0.00034974      -0.00472694
H       -2.45427497      -0.65498947       0.64260836
H       -2.43311707       0.67328779      -0.65473579
C       -0.91132561       0.90220522       0.91563759
C       -0.01476271      -0.02253852       1.78660255
H       -0.67934791      -0.69751639       2.42135241
H        0.63392994       0.61504881       2.47327442
C        0.01484550      -1.77751727      -0.01636693
H        0.67870853      -2.42144646      -0.68295456
H       -0.62264859      -2.45592969       0.64226336
C        1.78714474       0.01002794       0.00389507
H        2.44202412       0.67113390       0.66197326
H        2.45385902      -0.65136977      -0.64189061
C        0.91606151      -0.90478549       0.90901405
