141
Properties=species:S:1:pos:R:3 pbc="F F F"
C        0.00000000       0.00000000       0.00000000
C        0.87704683       0.87704683      -0.87704683
S        2.41756087       0.32038012      -1.38955926
C        2.65539534       1.74239236      -2.22624990
C        1.62743427       2.60183513      -2.14031611
C        0.54649441       2.15133061      -1.33276117
C       -0.70970597       2.89637381      -1.02696776
C        1.80776456       3.80695500      -2.87034190
C        3.07637129       3.77358650      -3.46505472
S        3.92796769       2.29625184      -3.14546320
C        3.71766534       4.79304446      -4.25914492
S        4.23489208       6.25876159      -3.48851213
C        4.85278889       6.81770475      -4.92974329
C        4.69813576       5.96809878      -5.95781811
C        4.01367645       4.76758193      -5.62880582
C        3.66114649       3.65236582      -6.55785223
C        5.24916858       6.42266131      -7.18807746
C        5.78016716       7.68986565      -6.95666299
S        5.63021969       8.23503147      -5.33664280
C        5.25944593       5.68748135      -8.48644965
C        0.83504272       4.93341504      -2.99647879
H       -1.27617850       2.44914362      -0.20595389
H       -1.36012396       2.91910089      -1.90680519
H       -0.48604633       3.92388314      -0.72453864
H        2.91618105       2.97651435      -6.12721322
H        4.55176905       3.06395657      -6.79932576
H        3.22847835       4.03963185      -7.48487813
H        5.58932077       4.65398116      -8.34336594
H        5.94139365       6.13034969      -9.21715086
H        4.25739905       5.68215539      -8.92662716
H       -0.16874691       4.55855211      -3.21652903
H        1.09635922       5.61512045      -3.81148777
H        0.80309067       5.51281093      -2.06854930
C        6.41260035       8.51920509      -7.94954986
C        6.94226314       9.21377688      -8.78109262
Br       7.79868309      10.33684071     -10.12562693
C       -0.87704683      -0.87704683      -0.87704683
S       -1.98464251      -0.16495400      -1.97790375
C       -2.46252746      -1.68068049      -2.48082966
C       -1.82015071      -2.68545715      -1.86397764
C       -0.87787342      -2.27013993      -0.88257284
C       -0.04209620      -3.15360633      -0.01793306
C       -2.20070259      -3.98185395      -2.30250491
C       -3.20907751      -3.84044360      -3.26549138
S       -3.58698992      -2.18093220      -3.60176061
C       -3.93622393      -4.87738620      -3.95624458
S       -5.06835047      -5.84613337      -3.06768196
C       -5.47030329      -6.67651922      -4.45341442
C       -4.80794152      -6.26842795      -5.54768318
C       -3.87147847      -5.22656742      -5.31201831
C       -2.96568373      -4.59058214      -6.31509867
C       -5.16534577      -6.95096612      -6.74359546
C       -6.11690386      -7.90919715      -6.40059478
S       -6.54342295      -7.91984001      -4.73863100
C       -4.62637558      -6.69567027      -8.11133108
C       -1.64460436      -5.28650278      -1.83382941
H        0.42492291      -2.61391844       0.81007652
H        0.75636272      -3.61467728      -0.60746757
H       -0.65170060      -3.94290725       0.43223241
H       -2.16792849      -4.01061549      -5.84136465
H       -3.53285619      -3.91710559      -6.96508959
H       -2.47326302      -5.34858467      -6.93114064
H       -4.62810257      -5.62434787      -8.33421743
H       -5.21929167      -7.17452585      -8.89507667
H       -3.60205688      -7.07284704      -8.19127768
H       -0.55172914      -5.25455474      -1.80005035
H       -1.90958179      -6.11186753      -2.50151811
H       -2.02473962      -5.52425331      -0.83545798
C       -6.72687592      -8.83854775      -7.31593163
C       -7.23772752      -9.61687888      -8.08252624
Br      -8.06373135     -10.87537449      -9.32204489
C       -0.87704683       0.87704683       0.87704683
S       -0.19278976       2.19093712       1.74377337
C       -1.69545547       2.57202685       2.35655529
C       -2.67761530       1.76203368       1.92993653
C       -2.24878182       0.71958554       1.06221883
C       -3.10127045      -0.34577216       0.45813731
C       -3.96725125       2.09247994       2.42533027
C       -3.83796695       3.19072272       3.28632283
S       -2.20509372       3.76605425       3.39853476
C       -4.86518517       3.84580038       4.05886917
S       -5.56816102       3.00825949       5.40574529
C       -6.52243000       4.32832708       5.74947985
C       -6.34360756       5.36510785       4.91533724
C       -5.39647828       5.13071108       3.88287483
C       -5.00973482       6.07208144       2.78954828
C       -7.13236751       6.50973625       5.21780359
C       -7.91857364       6.18639427       6.32172789
S       -7.65842868       4.60606797       6.93739730
C       -7.12580648       7.81417374       4.49339670
C       -5.25413102       1.40469279       2.10611275
H       -2.51478977      -1.15957896       0.02370819
H       -3.72678277       0.07446640      -0.33546705
H       -3.74699498      -0.80023196       1.21561242
H       -4.46936011       5.56774744       1.98280107
H       -4.36684505       6.86593665       3.18226967
H       -5.89520036       6.52430652       2.33348145
H       -6.10079656       8.15912885       4.32674246
H       -7.63180542       8.60825291       5.04883586
H       -7.62750360       7.71269232       3.52598568
H       -5.34608195       1.23004975       1.03020253
H       -6.12412865       2.00045064       2.39838814
H       -5.31106165       0.44474715       2.62864210
C       -8.88343459       7.05953837       6.93838234
C       -9.69150564       7.79079656       7.45483044
Br     -10.99808817       8.97317921       8.28988334
C        0.87704683      -0.87704683       0.87704683
S        2.10338827      -1.85031671       0.17379527
C        2.53463651      -2.40335170       1.68604940
C        1.80409817      -1.88122539       2.68426195
C        0.78656540      -0.98067924       2.26334155
C       -0.19645145      -0.27424190       3.13584515
C        2.17918919      -2.32562010       3.98025216
C        3.22167522      -3.25195570       3.84138157
S        3.69861888      -3.48182026       2.18924359
C        3.89125778      -4.00455871       4.87403823
S        3.02433076      -5.26389018       5.69394486
C        4.37547717      -5.62975636       6.59500340
C        5.44319968      -4.86512656       6.31572642
C        5.21120376      -3.87254311       5.32631733
C        6.18588513      -2.85513557       4.83034384
C        6.61239307      -5.18880753       7.05870674
C        6.27557731      -6.23010722       7.92101126
S        4.65300432      -6.76980168       7.77908795
C        7.95078499      -4.53940111       6.94319083
C        1.58178444      -1.90132663       5.28182549
H       -1.01759826       0.17327323       2.56979050
H        0.29912609       0.52660819       3.69326422
H       -0.65356548      -0.97021790       3.84572302
H        5.69547349      -2.05117452       4.27326061
H        6.92098170      -3.32469951       4.16937016
H        6.71003279      -2.37892007       5.66403547
H        8.24651251      -4.44639698       5.89375838
H        8.74141442      -5.11071252       7.43676725
H        7.92844384      -3.54276743       7.39497033
H        1.46942837      -0.81402336       5.32288250
H        2.20877274      -2.18005076       6.13414394
H        0.60030491      -2.36594968       5.41819631
C        7.16732866      -6.84268476       8.87134188
C        7.91417042      -7.35571845       9.66724378
Br       9.12175037      -8.18525053      10.95414982
