154
Properties=species:S:1:pos:R:3 pbc="F F F"
C        1.78695085       1.78695085      -1.78695085
S        3.32746489       1.23028414      -2.29946328
C        3.56529936       2.65229639      -3.13615393
C        2.53733829       3.51173915      -3.05022013
C        1.45639844       3.06123463      -2.24266520
C        0.20019805       3.80627783      -1.93687178
C        2.71766858       4.71685902      -3.78024592
C        3.98627531       4.68349052      -4.37495874
S        4.83787172       3.20615587      -4.05536722
C        4.62756936       5.70294849      -5.16904894
S        5.14479611       7.16866562      -4.39841615
C        5.76269291       7.72760877      -5.83964731
C        5.60803978       6.87800281      -6.86772213
C        4.92358047       5.67748596      -6.53870984
C        4.57105051       4.56226985      -7.46775626
C        6.15907260       7.33256534      -8.09798148
C        6.69007118       8.59976967      -7.86656701
S        6.54012372       9.14493549      -6.24654682
Br       7.51670971       9.68377973      -9.16434606
C        6.16934995       6.59738537      -9.39635368
C        1.74494675       5.84331907      -3.90638281
H       -0.36627448       3.35904764      -1.11585791
H       -0.45021993       3.82900491      -2.81670922
H        0.42385770       4.83378716      -1.63444266
H        3.82608508       3.88641838      -7.03711725
H        5.46167307       3.97386059      -7.70922978
H        4.13838238       4.94953587      -8.39478215
H        6.49922479       5.56388518      -9.25326997
H        6.85129767       7.04025371     -10.12705488
H        5.16730307       6.59205942      -9.83653118
H        0.74115712       5.46845613      -4.12643306
H        2.00626324       6.52502447      -4.72139180
H        1.71299470       6.42271495      -2.97845333
C       -1.78695085      -1.78695085      -1.78695085
S       -3.04203728      -1.08863026      -2.72654478
C       -3.43768146      -2.59477681      -3.32129142
C       -2.66352038      -3.58550624      -2.85027096
C       -1.67488995      -3.16954379      -1.91586452
C       -0.69664030      -4.04286516      -1.20384220
C       -2.97467926      -4.87052942      -3.36956484
C       -4.07260130      -4.74116842      -4.23095486
S       -4.61262977      -3.09985212      -4.38691292
C       -4.77130999      -5.77882142      -4.94943538
S       -5.73760222      -6.91320165      -4.06107401
C       -6.19189893      -7.66041304      -5.47763704
C       -5.66456635      -7.10751756      -6.58168082
C       -4.79880510      -6.00939127      -6.33157989
C       -4.04027118      -5.21609904      -7.34470640
C       -6.06984303      -7.71945429      -7.80032210
C       -6.90609787      -8.78298936      -7.46732063
S       -7.18132132      -8.96661732      -5.78366739
Br      -7.70478787      -9.96220596      -8.69784167
C       -5.67681301      -7.30692727      -9.17934872
C       -2.27490137      -6.15454149      -3.06520577
H       -0.20353392      -3.53308314      -0.37201402
H        0.08127746      -4.38182666      -1.89494500
H       -1.19767420      -4.91710538      -0.77730793
H       -3.25351595      -4.60818052      -6.88792423
H       -4.71575064      -4.54489854      -7.88411426
H       -3.54435286      -5.87480679      -8.06354075
H       -5.78547124      -6.22540463      -9.30550407
H       -6.29592815      -7.77108184      -9.95159628
H       -4.63633021      -7.58405300      -9.37551046
H       -1.18957368      -6.02869326      -3.11777937
H       -2.52997350      -6.94306079      -3.77964522
H       -2.54442202      -6.50551104      -2.06422992
C       -1.78695085       1.78695085       1.78695085
S       -1.38453684       3.43673847       2.03593700
C       -2.73366663       3.62294255       2.99714050
C       -3.46731408       2.50586730       3.12611620
C       -2.94288890       1.37256158       2.44484778
C       -3.51710839      -0.00465139       2.43089067
C       -4.63366616       2.65873424       3.92237313
C       -4.66847590       3.97563886       4.40060982
S       -3.33957102       4.93238385       3.82743993
C       -5.63494156       4.57939283       5.28523240
S       -5.67607603       4.08743630       6.94836554
C       -6.89808720       5.17505464       7.25680716
C       -7.27709246       5.89075739       6.18591487
C       -6.58480212       5.56632892       4.98864523
C       -6.80524714       6.15998966       3.63583981
C       -8.30030903       6.84462829       6.44468209
C       -8.64511954       6.72219731       7.78909101
S       -7.73949880       5.54450357       8.64760366
Br      -9.97685223       7.72432411       8.66365916
C       -8.89803365       7.79914359       5.46591175
C       -5.65973703       1.61489608       4.22001552
H       -2.81918102      -0.74871937       2.03816943
H       -4.41808755      -0.03291010       1.81031675
H       -3.77428570      -0.32669977       3.44450159
H       -6.34108403       5.56498558       2.84355109
H       -6.38424984       7.16920790       3.59130571
H       -7.87251704       6.20904053       3.40114283
H       -8.11580403       8.30702008       4.89355584
H       -9.48675462       8.58441423       5.94743742
H       -9.55651818       7.26734421       4.77203129
H       -5.94628880       1.07965677       3.31010074
H       -6.57921817       2.04465440       4.62880695
H       -5.26999115       0.89639794       4.94777389
C        1.78695085      -1.78695085       1.78695085
S        1.34337448      -3.41543780       2.09840004
C        2.71525227      -3.61427271       3.02422470
C        3.48549163      -2.51692036       3.09688559
C        2.97439843      -1.38884861       2.39705123
C        3.58871896      -0.03095914       2.32366956
C        4.67068462      -2.68174954       3.86233936
C        4.68089920      -3.98425953       4.37956584
S        3.30707860      -4.91637945       3.87593675
C        5.65566286      -4.59078590       5.25311802
S        5.76253040      -4.05096438       6.89838309
C        6.96047571      -5.16594057       7.20353272
C        7.28489099      -5.92455785       6.14431589
C        6.56611717      -5.61484614       4.95881295
C        6.72709315      -6.25506523       3.61891824
C        8.28668475      -6.90128151       6.40165316
C        8.67614008      -6.74947967       7.73078811
S        7.83283866      -5.51944440       8.57932296
Br      10.00365092      -7.76553732       8.59564726
C        8.82533028      -7.90246693       5.43529179
C        5.73607879      -1.66152460       4.09704524
H        2.90154552       0.72216510       1.92925066
H        4.47064539      -0.04891180       1.67593700
H        3.88640749       0.31310837       3.31878840
H        6.25674788      -5.66996294       2.82290988
H        6.27502736      -7.25174929       3.61798680
H        7.78471042      -6.34386292       3.35412706
H        8.01109003      -8.40290394       4.90238597
H        9.40489795      -8.69075298       5.92295534
H        9.47774301      -7.41207457       4.70607610
H        6.01036400      -1.16270692       3.16297538
H        6.65446664      -2.10695623       4.49125664
H        5.39047223      -0.91001371       4.81367704
C       -0.00445707       0.01189536      -1.78238275
H       -0.66409135       0.67374010      -2.43557963
H        0.65740317      -0.63156657      -2.45157240
C       -0.90989263      -0.90692880      -0.91072765
C        0.90977584       0.90977584      -0.90977584
C       -0.00465871       1.77757030       0.00794375
H       -0.66225468       2.44313916      -0.64384735
H        0.64322798       2.43503045       0.67728295
C       -1.78241447       0.00034974      -0.00472694
H       -2.45427497      -0.65498947       0.64260836
H       -2.43311707       0.67328779      -0.65473579
C       -0.91132561       0.90220522       0.91563759
C       -0.01476271      -0.02253852       1.78660255
H       -0.67934791      -0.69751639       2.42135241
H        0.63392994       0.61504881       2.47327442
C        0.01484550      -1.77751727      -0.01636693
H        0.67870853      -2.42144646      -0.68295456
H       -0.62264859      -2.45592969       0.64226336
C        1.78714474       0.01002794       0.00389507
H        2.44202412       0.67113390       0.66197326
H        2.45385902      -0.65136977      -0.64189061
C        0.91606151      -0.90478549       0.90901405
