178
Properties=species:S:1:pos:R:3 pbc="F F F"
C        1.78730447       1.78730447      -1.78730447
S        3.04297582       1.08184388      -2.71537003
C        3.45012326       2.58563756      -3.30536494
C        2.68825152       3.59007524      -2.83829461
C        1.67609014       3.17030728      -1.92576127
C        0.67374112       4.03268591      -1.23578015
C        3.04439636       4.87265337      -3.34823792
C        4.12608674       4.70779441      -4.22202330
S        4.63438963       3.06195977      -4.37132195
C        4.80298239       5.73231151      -4.95629454
C        5.45556462       6.48485211      -5.62429647
C        6.38285902       7.30407207      -6.53043030
C        7.17364978       7.81910013      -7.27069217
C        8.16547835       8.31850646      -8.17239704
S        9.28305682       7.23341511      -8.92472281
C       10.00406358       8.50429555      -9.72104523
C        9.45571009       9.70347262      -9.45786971
C        8.36180361       9.65199122      -8.54722622
C        7.54238403      10.79748752      -8.05342610
C       10.07698851      10.78771207     -10.14092571
C       11.11070219      10.25321127     -10.90950806
S       11.28518151       8.55543529     -10.78643904
C        9.74368853      12.24129797     -10.09367983
C        2.42944877       6.20211944      -3.05663412
H        0.00139956       3.46891177      -0.58416332
H        0.04596507       4.54752754      -1.96982785
H        1.17811171       4.77306854      -0.60695785
H        6.75814264      10.48093016      -7.35928421
H        7.04717594      11.30044328      -8.89003143
H        8.17329935      11.51564384      -7.52026327
H        8.90520188      12.47512878      -9.44102288
H        9.48283822      12.60320299     -11.09412323
H       10.60313825      12.81557327      -9.73108038
H        1.59769811       6.15339221      -2.35642252
H        2.04904776       6.65379596      -3.97921195
H        3.17581422       6.87784208      -2.62509518
C       11.98695701      11.02408027     -11.75303545
C       12.72082043      11.66968306     -12.45948965
Br      13.90741550      12.71356817     -13.60176633
C       -1.78730447      -1.78730447      -1.78730447
S       -3.35609638      -1.25702798      -2.22706538
C       -3.58806029      -2.66293067      -3.09013480
C       -2.54410698      -3.50963998      -3.06287441
C       -1.43753500      -3.03681896      -2.29780473
C       -0.13768137      -3.73244940      -2.07207640
C       -2.75208620      -4.70965665      -3.80354480
C       -4.03288990      -4.65608253      -4.36693201
S       -4.88534694      -3.20250183      -3.97982257
C       -4.65410389      -5.64968810      -5.18779645
C       -5.29039633      -6.39355885      -5.88075801
C       -6.23414389      -7.22306296      -6.76015453
C       -7.06781124      -7.76362947      -7.43200138
C       -8.13623036      -8.30861795      -8.21153354
S       -9.60619185      -7.41973886      -8.41526401
C      -10.23513242      -8.64485462      -9.34941732
C       -9.40602050      -9.68929628      -9.52173565
C       -8.14803409      -9.54284617      -8.87014079
C       -7.01421358     -10.51335139      -8.86573269
C       -9.94936273     -10.73533591     -10.32092766
C      -11.23264588     -10.34156194     -10.69921370
S      -11.70998364      -8.80794610     -10.10912610
C       -9.32754915     -12.03182647     -10.71929071
C       -1.82630792      -5.86572999      -3.99616442
H        0.55132588      -3.15845217      -1.44734837
H        0.37012599      -3.90774942      -3.02569703
H       -0.30153602      -4.68956168      -1.56704040
H       -6.15839239     -10.15258851      -8.28737610
H       -6.66051976     -10.69086169      -9.88626921
H       -7.32680812     -11.46275033      -8.41964800
H       -8.31958313     -12.16851051     -10.33325990
H       -9.26613558     -12.10340403     -11.81062483
H       -9.92923431     -12.86975150     -10.35080610
H       -0.86972720      -5.74690764      -3.49087800
H       -1.61365755      -6.00701827      -5.06137985
H       -2.28280143      -6.78425389      -3.61169616
C      -12.12182141     -11.12491183     -11.51733950
C      -12.86650592     -11.78096735     -12.20251986
Br     -14.07059778     -12.84175366     -13.31039856
C       -1.78730447       1.78730447       1.78730447
S       -1.41816506       3.45025334       1.97177133
C       -2.73368280       3.62940276       2.97804020
C       -3.43505411       2.50052435       3.18104291
C       -2.91409687       1.36582500       2.49223682
C       -3.45720792      -0.02315002       2.50814928
C       -4.55817691       2.66357230       4.04353844
C       -4.60729147       4.00437991       4.44423307
S       -3.33138403       4.96065646       3.77563085
C       -5.57177633       4.60857784       5.31123426
C       -6.30640619       5.23947056       6.01883644
C       -7.14229232       6.18694731       6.88812176
C       -7.70192864       7.03175770       7.52975575
C       -8.28105355       8.12012370       8.25520460
S       -7.57532994       9.69710812       8.16875667
C       -8.74196617      10.29187744       9.19556076
C       -9.63739750       9.37569458       9.60396035
C       -9.41263422       8.07194757       9.07643926
C      -10.21958615       6.84255823       9.33115327
C      -10.63288725       9.88949908      10.48323997
C      -10.36542371      11.24658898      10.66140882
S       -8.99787221      11.82096285       9.80822078
C      -11.77255236       9.17604795      11.13006603
C       -5.55330554       1.64374947       4.49114733
H       -2.87637153      -0.71615359       1.89425671
H       -4.48010456      -0.03568268       2.11889858
H       -3.45210661      -0.42154401       3.52757550
H       -9.83002267       5.96990804       8.79842631
H      -11.25183493       6.98831231       8.99750342
H      -10.21414448       6.59721238      10.39784959
H      -11.82651589       8.11974599      10.87509166
H      -12.72343613       9.62843789      10.82829042
H      -11.68964611       9.23966532      12.22048048
H       -5.37073717       0.64992014       4.08685553
H       -6.56210247       1.93800897       4.18194423
H       -5.54005051       1.55577817       5.58292280
C      -11.14527346      12.13371929      11.48507999
C      -11.79839763      12.87669092      12.17490459
Br     -12.85444416      14.07801321      13.29029263
C        1.78730447      -1.78730447       1.78730447
S        1.40259514      -3.44417024       1.99342435
C        2.72682334      -3.62671787       2.98758456
C        3.44222075      -2.50331570       3.17108492
C        2.92595913      -1.37046043       2.47573914
C        3.48386494       0.01272201       2.47106425
C        4.57270959      -2.66922784       4.02335021
C        4.61192376      -4.00617211       4.43780858
S        3.31890457      -4.95577518       3.79299160
C        5.57917631      -4.61144148       5.30097064
C        6.31461419      -5.24263170       6.00746730
C        7.14967734      -6.18974270       6.87794134
C        7.70717468      -7.03365387       7.52261353
C        8.28247889      -8.12041520       8.25348777
S        7.55923723      -9.69059386       8.19136365
C        8.73042570     -10.28690629       9.21207237
C        9.63980725      -9.37607770       9.60116748
C        9.42321705      -8.07565377       9.06215023
C       10.24579850      -6.85233354       9.29516561
C       10.63914816      -9.89116535      10.47531278
C       10.35926985     -11.24335986      10.67079180
S        8.97668239     -11.81207575       9.83829770
C       11.79314024      -9.18313458      11.10239151
C        5.58329200      -1.65542181       4.44948852
H        2.90386128       0.70536339       1.85597677
H        4.50261884       0.01020656       2.07090818
H        3.49387050       0.42190423       3.48617184
H        9.85981296      -5.98125165       8.75729240
H       11.27282404      -7.01262990       8.95219673
H       10.25435065      -6.59567872      10.35917708
H       11.85554156      -8.13022460      10.83558738
H       12.73590841      -9.64882565      10.79543038
H       11.72122325      -9.23432948      12.19423918
H        5.40693195      -0.66402852       4.03655237
H        6.58555938      -1.96369771       4.13279858
H        5.58263570      -1.55577510       5.54034068
C       11.13845358     -12.13001470      11.49560445
C       11.79101995     -12.87258813      12.18638505
Br      12.84616458     -14.07326657      13.30331885
C       -0.00445707       0.01189536      -1.78238275
H       -0.66409135       0.67374010      -2.43557963
H        0.65740317      -0.63156657      -2.45157240
C       -0.90989263      -0.90692880      -0.91072765
C        0.90977584       0.90977584      -0.90977584
C       -0.00465871       1.77757030       0.00794375
H       -0.66225468       2.44313916      -0.64384735
H        0.64322798       2.43503045       0.67728295
C       -1.78241447       0.00034974      -0.00472694
H       -2.45427497      -0.65498947       0.64260836
H       -2.43311707       0.67328779      -0.65473579
C       -0.91132561       0.90220522       0.91563759
C       -0.01476271      -0.02253852       1.78660255
H       -0.67934791      -0.69751639       2.42135241
H        0.63392994       0.61504881       2.47327442
C        0.01484550      -1.77751727      -0.01636693
H        0.67870853      -2.42144646      -0.68295456
H       -0.62264859      -2.45592969       0.64226336
C        1.78714474       0.01002794       0.00389507
H        2.44202412       0.67113390       0.66197326
H        2.45385902      -0.65136977      -0.64189061
C        0.91606151      -0.90478549       0.90901405
