170
Properties=species:S:1:pos:R:3 pbc="F F F"
C        1.78730447       1.78730447      -1.78730447
S        3.04297582       1.08184388      -2.71537003
C        3.45012326       2.58563756      -3.30536494
C        2.68825152       3.59007524      -2.83829461
C        1.67609014       3.17030728      -1.92576127
C        0.67374112       4.03268591      -1.23578015
C        3.04439636       4.87265337      -3.34823792
C        4.12608674       4.70779441      -4.22202330
S        4.63438963       3.06195977      -4.37132195
C        4.80298239       5.73231151      -4.95629454
C        5.45556462       6.48485211      -5.62429647
C        6.38285902       7.30407207      -6.53043030
C        7.17364978       7.81910013      -7.27069217
C        8.16547835       8.31850646      -8.17239704
S        9.28305682       7.23341511      -8.92472281
C       10.00406358       8.50429555      -9.72104523
C        9.45571009       9.70347262      -9.45786971
C        8.36180361       9.65199122      -8.54722622
C        7.54238403      10.79748752      -8.05342610
C       10.07698851      10.78771207     -10.14092571
C       11.11070219      10.25321127     -10.90950806
S       11.28518151       8.55543529     -10.78643904
Br      12.25661732      11.26130894     -12.01262416
C        9.74368853      12.24129797     -10.09367983
C        2.42944877       6.20211944      -3.05663412
H        0.00139956       3.46891177      -0.58416332
H        0.04596507       4.54752754      -1.96982785
H        1.17811171       4.77306854      -0.60695785
H        6.75814264      10.48093016      -7.35928421
H        7.04717594      11.30044328      -8.89003143
H        8.17329935      11.51564384      -7.52026327
H        8.90520188      12.47512878      -9.44102288
H        9.48283822      12.60320299     -11.09412323
H       10.60313825      12.81557327      -9.73108038
H        1.59769811       6.15339221      -2.35642252
H        2.04904776       6.65379596      -3.97921195
H        3.17581422       6.87784208      -2.62509518
C       -1.78730447      -1.78730447      -1.78730447
S       -3.36369619      -1.26608859      -2.21040495
C       -3.59140720      -2.66692654      -3.08279202
C       -2.54060670      -3.50547674      -3.07053794
C       -1.43174515      -3.02991520      -2.31049834
C       -0.12467320      -3.71692574      -2.10060823
C       -2.74498702      -4.70121839      -3.81908224
C       -4.03062438      -4.65340167      -4.37187840
S       -4.89143685      -3.20976874      -3.96646575
C       -4.65048493      -5.64540494      -5.19569857
C       -5.28637835      -6.38882077      -5.88951407
C       -6.23051640      -7.21884097      -6.76800401
C       -7.06521171      -7.76070561      -7.43752476
C       -8.13546737      -8.30801159      -8.21290288
S       -9.61398932      -7.42929446      -8.39791095
C      -10.24064822      -8.65195904      -9.33679711
C       -9.40470274      -9.68836336      -9.52398633
C       -8.14275991      -9.53704787      -8.88121327
C       -7.00130104     -10.49848914      -8.89350747
C       -9.94610904     -10.73234805     -10.32716920
C      -11.23544054     -10.34583646     -10.69214452
S      -11.72017236      -8.82078850     -10.08609498
Br     -12.39860639     -11.37099939     -11.76094463
C       -9.31725745     -12.02065021     -10.74075868
C       -1.81166031      -5.84831629      -4.02822573
H        0.56473117      -3.14241294      -1.47679289
H        0.37688713      -3.88062583      -3.05958175
H       -0.27692313      -4.67927755      -1.60193742
H       -6.14377664     -10.13550088      -8.31907949
H       -6.65436044     -10.66509864      -9.91819158
H       -7.30281238     -11.45384751      -8.45254656
H       -8.30519704     -12.15234387     -10.36381263
H       -9.26398071     -12.08310354     -11.83308020
H       -9.90934125     -12.86623238     -10.37421828
H       -0.85205192      -5.72587233      -3.52958860
H       -1.60639685      -5.97947699      -5.09618183
H       -2.25779685      -6.77346133      -3.64749330
C       -1.78730447       1.78730447       1.78730447
S       -1.40914123       3.44679011       1.98425839
C       -2.72970726       3.62787417       2.98354433
C       -3.43920764       2.50211346       3.17530027
C       -2.92097185       1.36846405       2.48272279
C       -3.47265750      -0.01721306       2.48676273
C       -4.56659953       2.66679197       4.03189615
C       -4.60997615       4.00540013       4.44052817
S       -3.32415132       4.95787741       3.78564261
C       -5.57606505       4.61020799       5.30531540
C       -6.31116317       5.24126996       6.01228007
C       -7.14657221       6.18853818       6.88225099
C       -7.70496868       7.03283621       7.52563720
C       -8.28187894       8.12028789       8.25421501
S       -7.56600253       9.69339792       8.18179428
C       -8.73527649      10.28904420       9.20508368
C       -9.63879267       9.37590899       9.60235078
C       -9.41876658       8.07405474       9.06819974
C      -10.23477678       6.84812042       9.31040046
C      -10.63651385       9.89044254      10.47866990
C      -10.36185499      11.24474510      10.66682142
S       -8.98558970      11.81589920       9.82556694
Br     -11.38119164      12.40452669      11.74483208
C      -11.78448194       9.18007616      11.11410823
C       -5.57068461       1.65039448       4.46712324
H       -2.89230383      -0.71001018       1.87218100
H       -4.49319638      -0.02106786       2.09119194
H       -3.47626835      -0.42185983       3.50372959
H       -9.84728739       5.97636422       8.77470539
H      -11.26404135       7.00226382       8.97134549
H      -10.23740195       6.59622475      10.37557975
H      -11.84333600       8.12570595      10.85231159
H      -12.73070491       9.64014807      10.80931146
H      -11.70790135       9.23651017      12.20538038
H       -5.39171441       0.65795211       4.05784632
H       -6.57574020       1.95274380       4.15357166
H       -5.56468834       1.55566593       5.55839721
C        1.78730447      -1.78730447       1.78730447
S        1.39392388      -3.44055637       2.00570948
C        2.72300319      -3.62512294       2.99299964
C        3.44621211      -2.50497420       3.16543506
C        2.93256549      -1.37321425       2.46637896
C        3.49871074       0.00652721       2.45002365
C        4.58080340      -2.67258825       4.01189600
C        4.61450376      -4.00723725       4.43416344
S        3.31195451      -4.95287542       3.80284142
C        5.58329779      -4.61314339       5.29514725
C        6.31918585      -5.24451079       6.00101656
C        7.15379108      -6.19140556       6.87216474
C        7.71009777      -7.03478405       7.51856026
C        8.28327518      -8.12059476       8.25251191
S        7.55027695      -9.68672929       8.20418848
C        8.72400290     -10.28396414       9.22143733
C        9.64115455      -9.37631874       9.59957914
C        9.42911491      -8.07786589       9.05404025
C       10.26040115      -6.85815212       9.27474438
C       10.64264234      -9.89217404      10.47080991
C       10.35585039     -11.24146135      10.67610978
S        8.96488701     -11.80681070       9.85535813
Br      11.37433915     -12.40061440      11.75559686
C       11.80461511      -9.18736769      11.08668353
C        5.59999257      -1.66235722       4.42585255
H        2.91917050       0.69895431       1.83425846
H        4.51500065      -0.00452679       2.04379302
H        3.51728667       0.42171667       3.46256811
H        9.87640665      -5.98799784       8.73395252
H       11.28436173      -7.02668853       8.92660040
H       10.27690460      -6.59518277      10.33711908
H       11.87171474      -8.13647052      10.81316827
H       12.74270856      -9.66056413      10.77689175
H       11.73897555      -9.23158509      12.17923127
H        5.42708998      -0.67241088       4.00801198
H        6.59846763      -1.97856113       4.10502692
H        5.60650893      -1.55617397       5.51606857
C       -0.00445707       0.01189536      -1.78238275
H       -0.66409135       0.67374010      -2.43557963
H        0.65740317      -0.63156657      -2.45157240
C       -0.90989263      -0.90692880      -0.91072765
C        0.90977584       0.90977584      -0.90977584
C       -0.00465871       1.77757030       0.00794375
H       -0.66225468       2.44313916      -0.64384735
H        0.64322798       2.43503045       0.67728295
C       -1.78241447       0.00034974      -0.00472694
H       -2.45427497      -0.65498947       0.64260836
H       -2.43311707       0.67328779      -0.65473579
C       -0.91132561       0.90220522       0.91563759
C       -0.01476271      -0.02253852       1.78660255
H       -0.67934791      -0.69751639       2.42135241
H        0.63392994       0.61504881       2.47327442
C        0.01484550      -1.77751727      -0.01636693
H        0.67870853      -2.42144646      -0.68295456
H       -0.62264859      -2.45592969       0.64226336
C        1.78714474       0.01002794       0.00389507
H        2.44202412       0.67113390       0.66197326
H        2.45385902      -0.65136977      -0.64189061
C        0.91606151      -0.90478549       0.90901405
