186
Properties=species:S:1:pos:R:3 pbc="F F F"
C        1.79130500       1.79130500      -1.79130500
C        2.08487770       3.09233221      -1.39735827
C        2.89518176       3.89711710      -2.20612629
C        3.42094441       3.41987463      -3.42134667
C        3.10379722       2.10109918      -3.79337892
C        2.29820142       1.28959460      -2.98645890
C        4.27327374       4.27324776      -4.27440320
C        3.94917536       5.61489288      -4.52305592
C        4.75868406       6.42499794      -5.33281219
C        5.92720385       5.92642868      -5.92929012
C        6.25173095       4.58491944      -5.68142546
C        5.44352778       3.77555623      -4.87038706
C        6.77846151       6.77940708      -6.78239764
C        7.27280222       6.31876379      -8.01197562
C        8.08112479       7.12945490      -8.82327350
C        8.43219922       8.43218757      -8.43939772
C        7.93756046       8.89079471      -7.20773391
C        7.12647249       8.08129487      -6.39832143
C        9.28615359       9.28621916      -9.29418083
C       10.40831088       8.76187086      -9.96402656
C       11.21525617       9.56532877     -10.77621865
C       10.91617526      10.91570941     -10.92606732
C        9.81711615      11.46553204     -10.27523553
C        9.00955053      10.65524621      -9.47053514
Br      12.00659959      12.00556062     -12.01892562
H        1.69464395       3.49169791      -0.46465259
H        3.12484236       4.90573143      -1.86841274
H        3.47410862       1.69187410      -4.73166641
H        2.07232601       0.27449761      -3.30264970
H        3.04528727       6.04864498      -4.10077699
H        4.45226173       7.45559375      -5.50610231
H        7.15517970       4.15251389      -6.10584407
H        5.75154722       2.74559636      -4.69696951
H        7.01982453       5.32187884      -8.36570732
H        8.42076704       6.72642511      -9.77619042
H        8.19163699       9.88640623      -6.85007998
H        6.78240816       8.48285532      -5.44717324
H       10.67437444       7.71216132      -9.84849165
H       12.07276841       9.12717991     -11.27974124
H        9.57533527      12.51912118     -10.38780134
H        8.14460720      11.10620037      -8.98682255
C       -1.79130500      -1.79130500      -1.79130500
C       -1.58832734      -1.81941385      -3.16682698
C       -2.39618596      -2.63026045      -3.97197875
C       -3.42115234      -3.42116993      -3.41984344
C       -3.60317452      -3.36892050      -2.02618030
C       -2.79527264      -2.56396059      -1.21502168
C       -4.27436960      -4.27347175      -4.27308336
C       -4.79467396      -3.80440291      -5.48804729
C       -5.60452639      -4.61386702      -6.29810078
C       -5.92910301      -5.92767588      -5.92614376
C       -5.40952708      -6.39727803      -4.71127075
C       -4.59836235      -5.58875688      -3.90235184
C       -6.78245869      -6.77900013      -6.77880740
C       -7.82885900      -7.53934104      -6.23534159
C       -8.64048740      -8.34782905      -7.04553675
C       -8.43921001      -8.43343871      -8.43113578
C       -7.39047113      -7.67274638      -8.97287158
C       -6.58128851      -6.86171439      -8.16308588
C       -9.29398503      -9.28752430      -9.28504425
C       -9.69238013     -10.57255008      -8.86927809
C      -10.50383720     -11.38090726      -9.67205912
C      -10.92573203     -10.91794430     -10.91427566
C      -10.54686482      -9.65496712     -11.35605179
C       -9.74162277      -8.84829175     -10.54541736
Br     -12.01842899     -12.00887092     -12.00378592
H       -0.80538848      -1.22049786      -3.62510811
H       -2.20705109      -2.64851274      -5.04342271
H       -4.39276761      -3.95082887      -1.55405265
H       -2.96177207      -2.54664244      -0.14105881
H       -4.58998005      -2.78782613      -5.81690305
H       -5.99534350      -4.19452077      -7.22409351
H       -5.61660122      -7.41359792      -4.38333852
H       -4.20729703      -6.00954418      -2.97727189
H       -8.03902359      -7.49941320      -5.16897390
H       -9.44988024      -8.90146952      -6.57203281
H       -7.17610592      -7.71325640     -10.03876088
H       -5.77401242      -6.30428481      -8.63413950
H       -9.36044030     -10.96530334      -7.90928377
H      -10.79370094     -12.36691712      -9.31907150
H      -10.87303021      -9.28479256     -12.32443501
H       -9.47434596      -7.85657732     -10.90670683
C       -1.79130500       1.79130500       1.79130500
C       -2.49265492       2.85259299       1.22932026
C       -3.30181860       3.65729128       2.03931528
C       -3.42057901       3.42004266       3.42154404
C       -2.69685050       2.34110801       3.96031681
C       -1.88996775       1.52959527       3.15469190
C       -4.27303395       4.27354747       4.27434329
C       -4.27060699       5.67014906       4.14636811
C       -5.08022208       6.48028502       4.95598709
C       -5.92656894       5.92702430       5.92932942
C       -5.92927320       4.53067038       6.05813229
C       -5.12134846       3.72062564       5.24749696
C       -6.77789940       6.78039166       6.78197517
C       -6.86847526       6.56905387       8.16601251
C       -7.67680957       7.38039364       8.97664997
C       -8.43071158       8.43408880       8.43898412
C       -8.33974749       8.64301887       7.05332273
C       -7.52873327       7.83386962       6.24348590
C       -9.28451543       9.28833473       9.29370342
C      -10.06524206       8.73971675      10.32924949
C      -10.87018455       9.54476145      11.14185758
C      -10.91401221      10.91834804      10.92559174
C      -10.15785342      11.49122472       9.90880560
C       -9.34897869      10.68185256       9.10450062
Br     -12.00378326      12.00887499      12.01842758
H       -2.42276675       3.06310465       0.16512305
H       -3.85414970       4.47109208       1.57374476
H       -2.74421339       2.12688907       5.02654667
H       -1.34393021       0.70322336       3.60231975
H       -3.62056058       6.15375505       3.42039361
H       -5.02786836       7.56026990       4.82581953
H       -6.57881990       4.04898864       6.78572912
H       -5.17540117       2.64087694       5.37783498
H       -6.29396788       5.77534247       8.63810033
H       -7.69389429       7.18219940      10.04728889
H       -8.91576288       9.43426826       6.57809206
H       -7.50672932       8.03205839       5.17364901
H      -10.06261192       7.66529454      10.50712095
H      -11.45861927       9.08802697      11.93304332
H      -10.18499958      12.56351056       9.73374765
H       -8.75283775      11.15741510       8.32737726
C        1.79130500      -1.79130500       1.79130500
C        2.23000244      -1.32042988       3.02413586
C        3.03576827      -2.13160354       3.83105334
C        3.42055891      -3.42155102       3.42005579
C        2.96310488      -3.86795776       2.16721267
C        2.15287657      -3.06349337       1.35788498
C        4.27405480      -4.27398918       4.27288073
C        5.39669725      -3.75574684       4.93468007
C        6.20675392      -4.56521264       5.74452763
C        5.92819151      -5.92876658       5.92596457
C        4.80604819      -6.44775965       5.26426802
C        3.99511760      -5.63816701       4.45618646
C        6.78183187      -6.78061107       6.77782330
C        7.19756916      -8.05185551       6.35411696
C        8.00947430      -8.86125432       7.16312457
C        8.43727355      -8.43670789       8.42980306
C        8.01888847      -7.16462318       8.85257743
C        7.20997713      -6.35405691       8.04205476
C        9.29186128      -9.29115527       9.28353703
C        9.06433839     -10.67644570       9.39342421
C        9.87280514     -11.48783128      10.19616716
C       10.92286680     -10.92252023      10.91256495
C       11.17209170      -9.55698384      10.82880819
C       10.36484641      -8.75211364      10.01837181
Br      12.01465069     -12.01465785      12.00177728
H        1.95095306      -0.32878708       3.37125432
H        3.35237201      -1.74780278       4.79881175
H        3.24653340      -4.85230053       1.79881520
H        1.81576686      -3.43864776       0.39505870
H        5.66988378      -2.70951876       4.81530670
H        7.07567799      -4.11546972       6.22281008
H        4.53536052      -7.49456990       5.38360723
H        3.12597174      -6.08874667       3.97939468
H        6.90734820      -8.42532929       5.37473319
H        8.31728091      -9.83104683       6.77505484
H        8.30517918      -6.78989301       9.83305100
H        6.90396653      -5.38273702       8.42573318
H        8.23761202     -11.14018191       8.85723347
H        9.66960335     -12.55362206      10.25646415
H       11.99109473      -9.10724442      11.38391864
H       10.59251125      -7.68922628       9.95589259
C       -0.00445707       0.01189536      -1.78238275
H       -0.66409135       0.67374010      -2.43557963
H        0.65740317      -0.63156657      -2.45157240
C       -0.90989263      -0.90692880      -0.91072765
C        0.90977584       0.90977584      -0.90977584
C       -0.00465871       1.77757030       0.00794375
H       -0.66225468       2.44313916      -0.64384735
H        0.64322798       2.43503045       0.67728295
C       -1.78241447       0.00034974      -0.00472694
H       -2.45427497      -0.65498947       0.64260836
H       -2.43311707       0.67328779      -0.65473579
C       -0.91132561       0.90220522       0.91563759
C       -0.01476271      -0.02253852       1.78660255
H       -0.67934791      -0.69751639       2.42135241
H        0.63392994       0.61504881       2.47327442
C        0.01484550      -1.77751727      -0.01636693
H        0.67870853      -2.42144646      -0.68295456
H       -0.62264859      -2.45592969       0.64226336
C        1.78714474       0.01002794       0.00389507
H        2.44202412       0.67113390       0.66197326
H        2.45385902      -0.65136977      -0.64189061
C        0.91606151      -0.90478549       0.90901405
