181
Properties=species:S:1:pos:R:3 pbc="F F F"
C        0.00000000       0.00000000       0.00000000
C        0.88267338       0.88267338      -0.88267338
C        0.36063177       2.04216477      -1.44806623
C        1.16997456       2.84467263      -2.26101732
C        2.51212276       2.50947302      -2.51864780
C        3.01217192       1.33386990      -1.92921250
C        2.20609901       0.52362226      -1.12061208
C        3.36073521       3.35838074      -3.38210834
C        3.32233657       4.76189856      -3.29038645
C        4.10791420       5.56883242      -4.12169479
C        4.95758179       4.98569848      -5.05997800
C        5.02238767       3.59698891      -5.16215501
C        4.22972723       2.79382463      -4.33362597
C        5.74360186       5.80609777      -5.92725799
C        6.38410109       6.49098663      -6.67673903
C        7.17552525       7.36057918      -7.66086633
C        7.76913928       8.03724837      -8.45565139
C        8.44903745       8.83877291      -9.42457890
C        8.16496629      10.19929259      -9.53101894
C        8.81177579      10.97764759     -10.49798545
C        9.75098775      10.41400501     -11.37930315
C       10.02692004       9.04164078     -11.24907933
C        9.38428692       8.26048236     -10.28143071
C       10.41641270      11.23196218     -12.41182909
C       11.80624124      11.16048152     -12.61449282
C       12.43653614      11.92978222     -13.59844283
C       11.68161604      12.78641481     -14.39374891
C       10.30503772      12.87980417     -14.21483984
C        9.67961986      12.10613923     -13.23147123
Br      12.52959430      13.82696943     -15.72398372
H       -0.67176015       2.33273737      -1.27158593
H        0.73159174       3.73558028      -2.70748971
H        4.04837135       1.03953186      -2.08668896
H        2.62585228      -0.37909584      -0.68436662
H        2.67901055       5.24779631      -2.55928867
H        4.04702887       6.65081019      -4.02986056
H        5.67913519       3.12782492      -5.89094779
H        4.28611035       1.71315488      -4.45452117
H        7.43882363      10.66479133      -8.86868590
H        8.57750431      12.03911247     -10.55221771
H       10.73720233       8.55953942     -11.91820317
H        9.61384231       7.19974388     -10.21216529
H       12.41703277      10.50699371     -11.99426144
H       13.51233793      11.85252336     -13.73096695
H        9.70784265      13.54427793     -14.83350576
H        8.59952595      12.18194830     -13.11939584
C       -0.88267338      -0.88267338      -0.88267338
C       -2.09660880      -0.39602613      -1.35822785
C       -2.90528675      -1.20938013      -2.16099764
C       -2.51594597      -2.51633085      -2.50796676
C       -1.28142965      -2.97808023      -2.01574444
C       -0.47118397      -2.17200859      -1.20714079
C       -3.37653176      -3.37253528      -3.35215724
C       -4.04194268      -2.85428938      -4.47838951
C       -4.87497928      -3.65683655      -5.26662558
C       -5.05365089      -5.00175802      -4.94784936
C       -4.39594474      -5.54179315      -3.84379370
C       -3.56929316      -4.73386349      -3.05402119
C       -5.92215468      -5.81905107      -5.73575187
C       -6.67238780      -6.50203097      -6.37740798
C       -7.65767833      -7.36867100      -7.17062143
C       -8.45442913      -8.04035073      -7.76725918
C       -9.42737029      -8.83168777      -8.45333120
C      -10.30533786      -8.23390689      -9.35603308
C      -11.27510464      -9.00515421     -10.00714998
C      -11.39042868     -10.38576603      -9.76810119
C      -10.48994951     -10.96847333      -8.85921731
C       -9.51687890     -10.20107707      -8.20824402
C      -12.42704453     -11.19334216     -10.43981728
C      -12.11547719     -12.42708906     -11.03864933
C      -13.09925819     -13.19681875     -11.66868425
C      -14.41252440     -12.73875863     -11.71049673
C      -14.75018569     -11.52098280     -11.12851323
C      -13.76307919     -10.75680543     -10.49734569
Br     -15.74409337     -13.77592688     -12.56052720
H       -2.43030294       0.60833225      -1.11059246
H       -3.85930589      -0.81202643      -2.50332942
H       -0.92946359      -3.97681538      -2.26831319
H        0.47496294      -2.56352856      -0.84255744
H       -3.91316856      -1.81136188      -4.76156509
H       -5.38094140      -3.22148034      -6.12527787
H       -4.52733478      -6.58896407      -3.58160906
H       -3.08855546      -5.18026566      -2.18496527
H      -10.24672477      -7.16703631      -9.55853979
H      -11.94111526      -8.51379580     -10.71392343
H      -10.55035063     -12.03143939      -8.63315489
H       -8.84075554     -10.68067281      -7.50432313
H      -11.09192980     -12.79730287     -11.02905526
H      -12.82735531     -14.14608142     -12.12239151
H      -15.77390812     -11.15733722     -11.15438100
H      -14.05185712      -9.81516372     -10.03384925
C       -0.88267338       0.88267338       0.88267338
C       -0.37210341       2.06190390       1.41685546
C       -1.18125234       2.86448151       2.22993066
C       -2.51195359       2.50959583       2.51869416
C       -3.00067857       1.31421326       1.96036249
C       -2.19457402       0.50391984       1.15183949
C       -3.36029925       3.35878084       3.38214420
C       -3.34981640       4.76080829       3.26399689
C       -4.13495434       5.56858916       4.09489790
C       -4.95622919       4.98760181       5.05942727
C       -4.99319515       3.60008857       5.18824787
C       -4.20099628       2.79625780       4.35992376
C       -5.74140129       5.80950742       5.92604892
C       -6.38073116       6.49641706       6.67467853
C       -7.17008163       7.36958289       7.65730623
C       -7.76155797       8.04998190       8.45049917
C       -8.43842778       8.85686440       9.41709709
C       -8.17791917      10.22411595       9.49324271
C       -8.82131475      11.00840704      10.45768704
C       -9.73351213      10.44419795      11.36658582
C       -9.98609956       9.06481084      11.26672975
C       -9.34683906       8.27762796      10.30173298
C      -10.39505432      11.26896102      12.39618862
C      -11.77935442      11.17580260      12.62605856
C      -12.40576045      11.95166263      13.60733810
C      -11.65251737      12.83670421      14.37255818
C      -10.28143661      12.95196461      14.16628051
C       -9.65981374      12.17166325      13.18575332
Br     -12.49524911      13.88620234      15.69909600
H        0.65126968       2.36801322       1.21581962
H       -0.75147573       3.77146444       2.65172157
H       -4.02813603       1.00391494       2.14254119
H       -2.60531927      -0.41433677       0.74014056
H       -2.72919620       5.24467926       2.51222006
H       -4.09598755       6.64959705       3.98211501
H       -5.62758714       3.13265642       5.93766434
H       -4.23495388       1.71718296       4.50164955
H       -7.47286852      10.69039837       8.80903398
H       -8.60595927      12.07481765      10.48805757
H      -10.67486055       8.58234922      11.95773513
H       -9.55776933       7.21174913      10.25623301
H      -12.38910275      10.49975013      12.02943505
H      -13.47731979      11.85717666      13.76133180
H       -9.68551403      13.63872067      14.76139164
H       -8.58356166      12.26516068      13.05214775
C        0.88267338      -0.88267338       0.88267338
C        2.10822373      -0.40528018       1.33735887
C        2.91677180      -1.21870548       2.14018723
C        2.51584284      -2.51642803       2.50797271
C        1.26981247      -2.96887632       2.03656553
C        0.45953619      -2.16278404       1.22801312
C        3.37627976      -3.37283292       3.35211161
C        4.06180055      -2.84914917       4.46367186
C        4.89465600      -3.65224689       5.25153852
C        5.05297802      -5.00305518       4.94722506
C        4.37516890      -5.54834969       3.85801301
C        3.54874413      -4.73996778       3.06846592
C        5.92111152      -5.82133819       5.73450792
C        6.67082472      -6.50565138       6.37535065
C        7.65519154      -7.37465002       7.16712919
C        8.45099774      -8.04878725       7.76225405
C        9.42261295      -8.84364755       8.44612876
C       10.31887000      -8.24578715       9.33062067
C       11.28712488      -9.02094758       9.97933637
C       11.38265751     -10.40568774       9.75595066
C       10.46399967     -10.98827443       8.86536605
C        9.49239629     -10.21692198       8.21688172
C       12.41756282     -11.21774518      10.42489597
C       12.09839493     -12.44016506      11.04265559
C       13.08042033     -13.21423789      11.67010296
C       14.39958710     -12.77193880      11.69025386
C       14.74485825     -11.56560419      11.08921929
C       13.75942620     -10.79705562      10.46074849
Br      15.72880309     -13.81501963      12.53672473
H        2.45105233       0.59179257       1.07330340
H        3.87971321      -0.82900937       2.46593917
H        0.90884411      -3.96004115       2.30570691
H       -0.49573759      -2.54701559       0.87984505
H        3.94924904      -1.80133887       4.73550762
H        5.41644071      -3.21273414       6.09852477
H        4.49054318      -6.60017924       3.60718549
H        3.05191710      -5.19096281       2.21090648
H       10.27576555      -7.17588602       9.52064929
H       11.96774278      -8.52926644      10.67182528
H       10.50864886     -12.05458075       8.65171530
H        8.80184572     -10.69668269       7.52722306
H       11.07037144     -12.79781266      11.05010382
H       12.80258744     -14.15447423      12.13876658
H       15.77317747     -11.21432767      11.09812121
H       14.05391797      -9.86476658       9.98218554
