98
Properties=species:S:1:pos:R:3 pbc="F F F"
C        1.77436065       1.77436065      -1.77436065
C        1.62784878       3.12207064      -1.98098249
C        2.67316870       3.51412736      -2.85645019
C        3.41877062       2.39022038      -3.16822546
N        2.85547426       1.33730474      -2.48452313
H        3.19506499       0.38753407      -2.47339525
C        4.57191756       2.27628376      -4.00593410
C        5.45856932       3.26023869      -4.41043285
C        6.43744228       2.65876744      -5.24300029
C        6.11058391       1.33007004      -5.33114776
N        4.98608024       1.10223693      -4.59210801
H        4.52351142       0.20851351      -4.52257983
H        0.86546686       3.76019043      -1.55371028
H        2.85562131       4.51482734      -3.22743701
H        5.41242994       4.30454161      -4.12880572
H        7.27507452       3.15021193      -5.72016588
C        6.82058284       0.32823806      -6.08336727
C        7.41520694      -0.51079623      -6.71335112
Br       8.37666382      -1.86744370      -7.73198172
C       -1.77436065      -1.77436065      -1.77436065
C       -1.65289733      -3.12907581      -1.94892878
C       -2.68759624      -3.51773268      -2.83841733
C       -3.40168773      -2.38523557      -3.19029317
N       -2.83028374      -1.32992217      -2.51709622
H       -3.14924184      -0.37310361      -2.53364886
C       -4.53393492      -2.26501006      -4.05519044
C       -5.43299859      -3.23840520      -4.45783708
C       -6.38053083      -2.63447926      -5.32419993
C       -6.02296805      -1.31529852      -5.43353514
N       -4.90979192      -1.09545385      -4.67517941
H       -4.42943259      -0.21050236      -4.61466980
H       -0.91390483      -3.77385135      -1.49161139
H       -2.88386902      -4.52216310      -3.19185354
H       -5.41566459      -4.27706502      -4.15304766
H       -7.21830661      -3.11822412      -5.80892160
C       -6.69473541      -0.31518433      -6.22226844
C       -7.25734057       0.52241131      -6.88283258
Br      -8.16702553       1.87673262      -7.95090892
C       -1.77436065       1.77436065       1.77436065
C       -3.06094693       1.50495669       2.16499829
C       -3.47312533       2.59073218       2.97988875
C       -2.42910853       3.49695709       3.05115084
N       -1.39421843       2.96990194       2.31318176
H       -0.47755588       3.37605809       2.20238034
C       -2.36018092       4.74059676       3.75335774
C       -3.12452985       5.18572029       4.81899071
C       -2.68467908       6.48953885       5.16499208
C       -1.67517669       6.80443712       4.29218790
N       -1.48474504       5.75513086       3.44054928
H       -0.81992520       5.75278349       2.68189607
H       -3.64353765       0.63093094       1.90489899
H       -4.43828559       2.70173049       3.45786957
H       -3.91370329       4.62663104       5.30544294
H       -3.07134119       7.11650116       5.95760998
C       -0.93408167       8.03866002       4.25944648
C       -0.31341459       9.07232170       4.23202555
Br       0.69015159      10.74366521       4.18768821
C        1.77436065      -1.77436065       1.77436065
C        3.14020318      -1.87923516       1.71146358
C        3.52322241      -2.79926075       2.72126310
C        2.37720296      -3.23829947       3.36171403
N        1.31800888      -2.58795986       2.77133339
H        0.34928970      -2.66485173       3.04185289
C        2.24674273      -4.16236591       4.44502678
C        3.19561793      -4.56267843       5.37094451
C        2.59127655      -5.50176048       6.24617298
C        1.29720721      -5.65497942       5.81961508
N        1.09271312      -4.85404379       4.73366827
H        0.22928505      -4.81148439       4.21383532
H        3.79561433      -1.35657746       1.02717580
H        4.53350416      -3.11455334       2.94982816
H        4.21775103      -4.20918066       5.41884558
H        3.05851793      -6.00384501       7.08308939
C        0.30667284      -6.52160647       6.40390886
C       -0.52289969      -7.24740662       6.89325491
Br      -1.86424832      -8.42096408       7.68448607
C       -0.00445707       0.01189536      -1.78238275
H       -0.66409135       0.67374010      -2.43557963
H        0.65740317      -0.63156657      -2.45157240
C       -0.90989263      -0.90692880      -0.91072765
C        0.90977584       0.90977584      -0.90977584
C       -0.00465871       1.77757030       0.00794375
H       -0.66225468       2.44313916      -0.64384735
H        0.64322798       2.43503045       0.67728295
C       -1.78241447       0.00034974      -0.00472694
H       -2.45427497      -0.65498947       0.64260836
H       -2.43311707       0.67328779      -0.65473579
C       -0.91132561       0.90220522       0.91563759
C       -0.01476271      -0.02253852       1.78660255
H       -0.67934791      -0.69751639       2.42135241
H        0.63392994       0.61504881       2.47327442
C        0.01484550      -1.77751727      -0.01636693
H        0.67870853      -2.42144646      -0.68295456
H       -0.62264859      -2.45592969       0.64226336
C        1.78714474       0.01002794       0.00389507
H        2.44202412       0.67113390       0.66197326
H        2.45385902      -0.65136977      -0.64189061
C        0.91606151      -0.90478549       0.90901405
