90
Properties=species:S:1:pos:R:3 pbc="F F F"
C        1.77436065       1.77436065      -1.77436065
C        1.62784878       3.12207064      -1.98098249
C        2.67316870       3.51412736      -2.85645019
C        3.41877062       2.39022038      -3.16822546
N        2.85547426       1.33730474      -2.48452313
H        3.19506499       0.38753407      -2.47339525
C        4.57191756       2.27628376      -4.00593410
C        5.45856932       3.26023869      -4.41043285
C        6.43744228       2.65876744      -5.24300029
C        6.11058391       1.33007004      -5.33114776
N        4.98608024       1.10223693      -4.59210801
H        4.52351142       0.20851351      -4.52257983
Br       7.02808701       0.03544281      -6.30321083
H        0.86546686       3.76019043      -1.55371028
H        2.85562131       4.51482734      -3.22743701
H        5.41242994       4.30454161      -4.12880572
H        7.27507452       3.15021193      -5.72016588
C       -1.77436065      -1.77436065      -1.77436065
C       -1.59455316      -3.11033179      -2.02601697
C       -2.65396032      -3.50797618      -2.88180975
C       -3.44146316      -2.39852072      -3.13723258
N       -2.88893452      -1.34958984      -2.43877777
H       -3.25585986      -0.41130357      -2.38883088
C       -4.62235928      -2.29500936      -3.93676678
C       -5.49151128      -3.29307941      -4.34465017
C       -6.51249402      -2.69733178      -5.12938421
C       -6.22774124      -1.35730652      -5.18675396
N       -5.08852449      -1.11731694      -4.47458375
H       -4.65058466      -0.21240201      -4.39161809
Br      -7.21206022      -0.06305159      -6.09162883
H       -0.80108917      -3.73732751      -1.64095090
H       -2.81803295      -4.50239058      -3.27746213
H       -5.40610492      -4.34334307      -4.09632928
H       -7.34938312      -3.19970386      -5.59636535
C       -1.77436065       1.77436065       1.77436065
C       -3.04720231       1.48741712       2.19628248
C       -3.46503570       2.58108671       2.99762385
C       -2.43839875       3.50913955       3.02967816
N       -1.40790499       2.98790023       2.28149691
H       -0.50204947       3.40986329       2.14408156
C       -2.38076045       4.76788611       3.70548886
C       -3.13264899       5.21924736       4.77734451
C       -2.71253635       6.53829744       5.08837622
C       -1.72717170       6.85543359       4.18919642
N       -1.53246546       5.79306650       3.35489323
H       -0.88294314       5.78854944       2.58311218
Br      -0.80305128       8.46790202       4.09578735
H       -3.61700494       0.59689164       1.96547100
H       -4.42255838       2.68255100       3.49277628
H       -3.90050031       4.65456346       5.29071350
H       -3.09600317       7.17339431       5.87605485
C        1.77436065      -1.77436065       1.77436065
C        3.14286337      -1.73524891       1.85278963
C        3.52292685      -2.71862042       2.80219899
C        2.37450645      -3.33760388       3.26510614
N        1.31389667      -2.73456520       2.62884027
H        0.33754947      -2.93688090       2.78156394
C        2.23993737      -4.38417854       4.23001951
C        3.13042668      -4.78805484       5.21075934
C        2.54960771      -5.87360248       5.91599982
C        1.32931125      -6.10666455       5.33582591
N        1.14653235      -5.21487816       4.31901468
H        0.33971195      -5.20118717       3.71370564
Br       0.11227521      -7.42494735       5.82951808
H        3.80124606      -1.07753035       1.30059117
H        4.53410374      -2.95518913       3.10859279
H        4.09732774      -4.34211374       5.40633579
H        2.98393028      -6.41618441       6.74533763
C       -0.00445707       0.01189536      -1.78238275
H       -0.66409135       0.67374010      -2.43557963
H        0.65740317      -0.63156657      -2.45157240
C       -0.90989263      -0.90692880      -0.91072765
C        0.90977584       0.90977584      -0.90977584
C       -0.00465871       1.77757030       0.00794375
H       -0.66225468       2.44313916      -0.64384735
H        0.64322798       2.43503045       0.67728295
C       -1.78241447       0.00034974      -0.00472694
H       -2.45427497      -0.65498947       0.64260836
H       -2.43311707       0.67328779      -0.65473579
C       -0.91132561       0.90220522       0.91563759
C       -0.01476271      -0.02253852       1.78660255
H       -0.67934791      -0.69751639       2.42135241
H        0.63392994       0.61504881       2.47327442
C        0.01484550      -1.77751727      -0.01636693
H        0.67870853      -2.42144646      -0.68295456
H       -0.62264859      -2.45592969       0.64226336
C        1.78714474       0.01002794       0.00389507
H        2.44202412       0.67113390       0.66197326
H        2.45385902      -0.65136977      -0.64189061
C        0.91606151      -0.90478549       0.90901405
