82
Properties=species:S:1:pos:R:3 pbc="F F F"
C        1.77814027       1.77814027      -1.77814027
N        1.57335325       3.12021807      -1.93018257
H        0.83254156       3.63929759      -1.48002356
C        2.51901118       3.64085916      -2.77781997
C        2.55039414       5.08079066      -3.13412216
C        3.32522721       2.58844785      -3.15514461
Br       4.80380594       2.68706332      -4.31509997
C        2.87123404       1.39356196      -2.53035633
C        3.46346936       0.03572275      -2.67280494
H        1.74260766       5.63449302      -2.64466948
H        2.43948330       5.20997384      -4.21554580
H        3.50030702       5.53025382      -2.82735261
H        2.92822332      -0.71718257      -2.08808263
H        4.50477989       0.03727359      -2.33444847
H        3.43963782      -0.28191006      -3.72035936
C       -1.77814027      -1.77814027      -1.77814027
N       -1.42197508      -3.03994606      -2.16183276
H       -0.55787224      -3.49364262      -1.90034784
C       -2.40922909      -3.58263977      -2.94582146
C       -2.30276916      -4.94947740      -3.51306040
C       -3.39731036      -2.62669824      -3.04481107
Br      -5.01088849      -2.79696400      -3.99811674
C       -3.01583942      -1.47024463      -2.30906828
C       -3.79891999      -0.21359405      -2.15948302
H       -1.36240537      -5.43195778      -3.22740701
H       -2.34415748      -4.91438568      -4.60645977
H       -3.12519840      -5.57729894      -3.15541612
H       -3.28508773       0.52811410      -1.54214975
H       -4.76574445      -0.42129987      -1.68945762
H       -3.97997699       0.24090312      -3.13901325
C       -1.77814027       1.77814027       1.77814027
N       -2.95809522       1.34911871       2.31653997
H       -3.34514113       0.42568936       2.18103222
C       -3.52329339       2.35640420       3.05799272
C       -4.81559670       2.18360042       3.76610984
C       -2.66559952       3.43193684       2.97128332
Br      -2.90868183       5.11032981       3.78695759
C       -1.54842752       3.08543091       2.16129390
C       -0.39500084       3.96039225       1.81660398
H       -5.22897185       1.18172527       3.61107304
H       -5.55029718       2.91018959       3.40451616
H       -4.68445041       2.33046370       4.84299934
H        0.33468549       3.45726075       1.17654813
H        0.12674479       4.27792362       2.72532311
H       -0.74006737       4.85315006       1.28486969
C        1.77814027      -1.77814027       1.77814027
N        3.01479558      -1.39489182       2.21406649
H        3.44802128      -0.50874495       1.99509648
C        3.56441321      -2.38960185       2.98367525
C        4.90834715      -2.25847809       3.59848173
C        2.63860150      -3.41012837       3.02008980
Br       2.83112193      -5.04767142       3.92717588
C        1.49426410      -3.04170476       2.25918347
C        0.26935354      -3.85896454       2.04367898
H        5.37132792      -1.29711616       3.35332608
H        5.57196736      -3.05227364       3.24076194
H        4.83903914      -2.33020410       4.68867022
H       -0.46836260      -3.34943107       1.41805492
H       -0.21042219      -4.08547520       3.00144893
H        0.52361460      -4.80324712       1.55122540
C       -0.00445707       0.01189536      -1.78238275
H       -0.66409135       0.67374010      -2.43557963
H        0.65740317      -0.63156657      -2.45157240
C       -0.90989263      -0.90692880      -0.91072765
C        0.90977584       0.90977584      -0.90977584
C       -0.00465871       1.77757030       0.00794375
H       -0.66225468       2.44313916      -0.64384735
H        0.64322798       2.43503045       0.67728295
C       -1.78241447       0.00034974      -0.00472694
H       -2.45427497      -0.65498947       0.64260836
H       -2.43311707       0.67328779      -0.65473579
C       -0.91132561       0.90220522       0.91563759
C       -0.01476271      -0.02253852       1.78660255
H       -0.67934791      -0.69751639       2.42135241
H        0.63392994       0.61504881       2.47327442
C        0.01484550      -1.77751727      -0.01636693
H        0.67870853      -2.42144646      -0.68295456
H       -0.62264859      -2.45592969       0.64226336
C        1.78714474       0.01002794       0.00389507
H        2.44202412       0.67113390       0.66197326
H        2.45385902      -0.65136977      -0.64189061
C        0.91606151      -0.90478549       0.90901405
