69
Properties=species:S:1:pos:R:3 pbc="F F F"
C        0.00000000       0.00000000       0.00000000
C        0.86823625       0.86823625      -0.86823625
N        0.66344923       2.21031405      -1.02027854
H       -0.07736246       2.72939357      -0.57011953
C        1.60910715       2.73095514      -1.86791595
C        1.64049012       4.17088664      -2.22421814
C        2.41532319       1.67854383      -2.24524058
C        1.96133001       0.48365794      -1.62045231
C        2.55356534      -0.87418127      -1.76290092
H        0.83270363       4.72458900      -1.73476545
H        1.52957927       4.30006981      -3.30564178
H        2.59040300       4.62034980      -1.91744859
H        2.01831930      -1.62708660      -1.17817861
H        3.59487586      -0.87263043      -1.42454444
H        2.52973380      -1.19181408      -2.81045533
C        3.54672910       1.75400422      -3.13283644
C        4.49428155       1.81720229      -3.87619797
Br       6.02639372       1.91938823      -5.07815068
C       -0.86823625      -0.86823625      -0.86823625
N       -0.59716490      -2.18477639      -1.11210053
H        0.19763275      -2.68305473      -0.73672866
C       -1.56103644      -2.71243296      -1.93450884
C       -1.53206183      -4.12911050      -2.37442256
C       -2.44688734      -1.69071452      -2.20150574
C       -2.02464879      -0.50805382      -1.53273764
C       -2.70044958       0.81759411      -1.55942953
H       -0.66619117      -4.66009359      -1.96577332
H       -1.47925014      -4.18983520      -3.46620552
H       -2.43477399      -4.65157375      -2.04185365
H       -2.17457450       1.56694763      -0.96178444
H       -3.71775481       0.73422028      -1.16325534
H       -2.75772793       1.19499652      -2.58564364
C       -3.62352775      -1.78362063      -3.02642138
C       -4.60896409      -1.86142949      -3.71728822
Br      -6.20233130      -1.98723984      -4.83436148
C       -0.86823625       0.86823625       0.86823625
N       -2.07575280       0.45926440       1.35902462
H       -2.48524638      -0.44783427       1.18473853
C       -2.63337743       1.46104159       2.11355922
C       -3.95077798       1.30649465       2.77832226
C       -1.74257176       2.51247992       2.08405593
C       -0.61219506       2.15637376       1.29687143
C        0.57597928       3.00606054       1.01220372
H       -4.38827341       0.32237441       2.58141027
H       -4.65289298       2.06495728       2.41744060
H       -3.84771729       1.41800137       3.86248273
H        1.30956757       2.50012640       0.37885248
H        1.07929471       3.28128107       1.94480351
H        0.27308267       3.92382762       0.49763009
C       -1.90977069       3.78309098       2.74070808
C       -2.04979980       4.84722774       3.29065426
Br      -2.27621503       6.56784688       4.17987072
C        0.86823625      -0.86823625       0.86823625
N        2.15250291      -0.54147194       1.20006697
H        2.62450551       0.29866864       0.89631376
C        2.68903723      -1.52066343       1.99827758
C        4.07632550      -1.44097300       2.51829639
C        1.70602896      -2.47331481       2.15976384
C        0.53887913      -2.07784271       1.44871841
C       -0.74605727      -2.82389765       1.36444461
H        4.58089963      -0.52952953       2.18162892
H        4.66413177      -2.29772350       2.17343560
H        4.07513178      -1.44003267       3.61303694
H       -1.49052647      -2.30645124       0.75348654
H       -1.17442241      -2.95811675       2.36309553
H       -0.58420479      -3.81174519       0.92083465
C        1.82086054      -3.68779108       2.92491813
C        1.91703200      -4.70491496       3.56573484
Br       2.07253311      -6.34951825       4.60188127
