90
Properties=species:S:1:pos:R:3 pbc="F F F"
C        1.77814027       1.77814027      -1.77814027
N        1.57335325       3.12021807      -1.93018257
H        0.83254156       3.63929759      -1.48002356
C        2.51901118       3.64085916      -2.77781997
C        2.55039414       5.08079066      -3.13412216
C        3.32522721       2.58844785      -3.15514461
C        2.87123404       1.39356196      -2.53035633
C        3.46346936       0.03572275      -2.67280494
H        1.74260766       5.63449302      -2.64466948
H        2.43948330       5.20997384      -4.21554580
H        3.50030702       5.53025382      -2.82735261
H        2.92822332      -0.71718257      -2.08808263
H        4.50477989       0.03727359      -2.33444847
H        3.43963782      -0.28191006      -3.72035936
C        4.45663312       2.66390824      -4.04274046
C        5.40418557       2.72710632      -4.78610199
Br       6.93629774       2.82929226      -5.98805471
C       -1.77814027      -1.77814027      -1.77814027
N       -1.47221849      -3.07587781      -2.07565760
H       -0.64903663      -3.55884110      -1.74398498
C       -2.44566633      -3.60869991      -2.88332408
C       -2.38495738      -5.00825622      -3.37209336
C       -3.37338639      -2.60957811      -3.08585517
C       -2.96784402      -1.43591970      -2.39138862
C       -3.68758140      -0.13397382      -2.35044184
H       -1.48856572      -5.52255859      -3.01064585
H       -2.36749616      -5.03104492      -4.46646185
H       -3.25803104      -5.57195228      -3.02793014
H       -3.16663641       0.61275656      -1.74524353
H       -4.68744965      -0.26509211      -1.92396018
H       -3.79231797       0.27494299      -3.36071214
C       -4.57380887      -2.71532650      -3.87414645
C       -5.57916270      -2.80389077      -4.53434040
Br      -7.20473482      -2.94709172      -5.60181817
C       -1.77814027       1.77814027       1.77814027
N       -2.97440769       1.36053893       2.28880728
H       -3.37473937       0.44641146       2.13071188
C       -3.53512343       2.36468693       3.03787995
C       -4.84228067       2.20228215       3.72074415
C       -2.65783213       3.42649550       2.98449205
C       -1.53284490       3.07452138       2.18778604
C       -0.35885267       3.93508649       1.87805791
H       -5.26993302       1.21052216       3.54131498
H       -5.55809408       2.94757451       3.35933434
H       -4.72735666       2.32845621       4.80210059
H        0.37314280       3.43035897       1.24190722
H        0.15238478       4.22796821       2.80091851
H       -0.67936031       4.84263876       1.35608806
C       -2.83270706       4.70299971       3.62757505
C       -2.97916482       5.77207199       4.16615706
Br      -3.21597463       7.50067145       5.03699862
C        1.77814027      -1.77814027       1.77814027
N        3.04524781      -1.42840757       2.15009851
H        3.50327526      -0.56955929       1.87902816
C        3.58649740      -2.41390947       2.93728345
C        4.95816076      -2.31330447       3.49384173
C        2.62410246      -3.39416096       3.05055625
C        1.46517446      -3.00968791       2.32028996
C        0.20187148      -3.78469727       2.18542831
H        5.44775341      -1.38156983       3.19244692
H        5.57562397      -3.14642236       3.14295660
H        4.93007625      -2.33993832       4.58789889
H       -0.54016241      -3.27046980       1.56881599
H       -0.24736152      -3.95447330       3.16939016
H        0.39936615      -4.75680065       1.72192032
C        2.75064107      -4.62432027       3.78832048
C        2.85661716      -5.65457869       4.40619802
Br       3.02797154      -7.32041942       5.40525375
C       -0.00445707       0.01189536      -1.78238275
H       -0.66409135       0.67374010      -2.43557963
H        0.65740317      -0.63156657      -2.45157240
C       -0.90989263      -0.90692880      -0.91072765
C        0.90977584       0.90977584      -0.90977584
C       -0.00465871       1.77757030       0.00794375
H       -0.66225468       2.44313916      -0.64384735
H        0.64322798       2.43503045       0.67728295
C       -1.78241447       0.00034974      -0.00472694
H       -2.45427497      -0.65498947       0.64260836
H       -2.43311707       0.67328779      -0.65473579
C       -0.91132561       0.90220522       0.91563759
C       -0.01476271      -0.02253852       1.78660255
H       -0.67934791      -0.69751639       2.42135241
H        0.63392994       0.61504881       2.47327442
C        0.01484550      -1.77751727      -0.01636693
H        0.67870853      -2.42144646      -0.68295456
H       -0.62264859      -2.45592969       0.64226336
C        1.78714474       0.01002794       0.00389507
H        2.44202412       0.67113390       0.66197326
H        2.45385902      -0.65136977      -0.64189061
C        0.91606151      -0.90478549       0.90901405
