162
Properties=species:S:1:pos:R:3 pbc="F F F"
C        8.77640911       7.87991459      -4.87353705
C        9.34766840       7.87255826      -3.49902432
C        8.86787995       7.18020579      -2.39990154
C        7.73152462       6.32755810      -2.34558151
C        6.76259634       5.62136651      -2.37599089
C        5.52233037       4.72887743      -2.45872723
C        4.55586715       4.02187685      -2.48528237
C        3.42057690       3.16627022      -2.43039345
N        2.63845464       2.85867990      -3.51407874
H        2.78971236       3.20829974      -4.45123159
C        1.62624491       2.00781338      -3.13568054
C        1.78598294       1.78598294      -1.78598294
C        2.91458600       2.51041818      -1.32103715
C        3.44696383       2.55680370       0.06815822
C        0.61917953       1.49907719      -4.09935341
N        9.68128076       7.44568501      -1.32798490
H        9.55281013       7.06479520      -0.39971516
C       10.69092294       8.30024976      -1.70517424
C       10.49578745       8.57055433      -3.04134133
C       11.73022235       8.76509019      -0.75357797
H        7.88249033       7.25284400      -4.94922330
H        9.50790457       7.49988180      -5.59343501
H        8.49174420       8.89609577      -5.16360730
H        4.32998356       3.19881986       0.14762089
H        3.73654119       1.55491822       0.39994869
H        2.69049768       2.95029284       0.75421727
H        0.79089598       1.88811919      -5.10805918
H       -0.38851228       1.79585254      -3.79098853
H        0.65656542       0.40602528      -4.14900121
H       11.57751820       8.34989718       0.24772882
H       11.71235393       9.85668593      -0.67191142
H       12.72463911       8.46126287      -1.09624212
C       11.31273823       9.42189348      -3.86681882
C       11.99693451      10.13489001      -4.55815621
Br      13.10322203      11.28774510      -5.67599031
C       -4.82223725      -8.50122372      -8.20639978
C       -3.41038647      -8.94608107      -8.36278343
C       -2.29684269      -8.42838618      -7.72275841
C       -2.25988630      -7.36544158      -6.77933635
C       -2.30639589      -6.46425503      -5.98930283
C       -2.41044206      -5.31367541      -4.98581756
C       -2.45285153      -4.41465773      -4.19551712
C       -2.41497881      -3.35296205      -3.24929971
N       -3.52729374      -2.69862866      -2.78529088
H       -4.47637030      -2.90383640      -3.06903699
C       -3.15863397      -1.72981667      -1.88128819
C       -1.78598294      -1.78598294      -1.78598294
C       -1.29668525      -2.80535225      -2.64400383
C        0.12175223      -3.20589868      -2.85146285
C       -4.15228840      -0.85796370      -1.20735803
N       -1.18988411      -9.11827008      -8.14679647
H       -0.24496407      -8.93903776      -7.83331867
C       -1.55788474     -10.08412238      -9.05433982
C       -2.92433659      -9.98763815      -9.19570838
C       -0.56965459     -10.99264809      -9.68658783
H       -4.91461031      -7.67205356      -7.49789375
H       -5.44292311      -9.32278204      -7.83551623
H       -5.22427843      -8.16128734      -9.16588150
H        0.21564542      -4.02268791      -3.57414004
H        0.56433140      -3.54581259      -1.91002954
H        0.70560011      -2.36147398      -3.23069938
H       -5.17423510      -1.08664042      -1.52619884
H       -3.95529894       0.19416604      -1.43719590
H       -4.10085884      -0.98909370      -0.12163937
H        0.44884210     -10.78564771      -9.34288095
H       -0.58757187     -10.87815057     -10.77522884
H       -0.80114835     -12.03524278      -9.44575298
C       -3.75282324     -10.80253225     -10.04609504
C       -4.44668081     -11.48500606     -10.75829386
Br      -5.56858983     -12.58850849     -11.90985913
C       -9.03236994       7.51215928       4.98533154
C       -9.71857415       7.32257884       3.67809799
C       -9.27264162       6.57246637       2.60287929
C       -8.06870548       5.82147639       2.51448235
C       -7.03742995       5.20916698       2.51335681
C       -5.71461850       4.44096701       2.55434952
C       -4.68604717       3.82726866       2.54971053
C       -3.48293235       3.07319681       2.46111141
N       -2.58286526       2.94102481       3.48732321
H       -2.68429783       3.36454532       4.40040053
C       -1.53060389       2.14974634       3.08938860
C       -1.78598294       1.78598294       1.78598294
C       -3.01542807       2.36058738       1.37002588
C       -3.66953774       2.22628848       0.03978308
C       -0.39868266       1.82631836       3.99260910
N      -10.19863914       6.66127498       1.59503654
H      -10.11601347       6.20560696       0.69570007
C      -11.24881649       7.45632907       1.99120138
C      -10.96418960       7.86995644       3.27353708
C      -12.40741686       7.73457002       1.10690362
H       -8.07910617       6.97607619       5.02937526
H       -9.65797492       7.14046458       5.80278188
H       -8.82243082       8.57255505       5.15646140
H       -4.61376372       2.77778239      -0.01036357
H       -3.88938033       1.17562346      -0.17349306
H       -3.01750184       2.61676905      -0.74769763
H       -0.51791816       2.29401402       4.97514217
H        0.54485870       2.17926080       3.56392671
H       -0.32626747       0.74406018       4.14126426
H      -12.30386803       7.23999049       0.13582803
H      -12.50185074       8.81059363       0.92850691
H      -13.33411062       7.37909841       1.56893507
C      -11.78370028       8.72182322       4.09592703
C      -12.47004048       9.43526164       4.78467862
Br     -13.57979454      10.58883123       5.89833168
C        5.09635355      -7.25060786       9.18289935
C        3.77248237      -7.10022320       9.84654541
C        2.67644515      -6.39915608       9.37238605
C        2.57649292      -5.67538867       8.15278264
C        2.56508462      -5.08730391       7.10756521
C        2.59243427      -4.35124499       5.76625578
C        2.57669587      -3.76369521       4.72263530
C        2.47459308      -3.04143600       3.50121150
N        3.47285389      -2.97511240       2.56324700
H        4.37332967      -3.42832027       2.64759375
C        3.06550394      -2.20601506       1.49821983
C        1.78598294      -1.78598294       1.78598294
C        1.39451083      -2.30290448       3.04862603
C        0.09454291      -2.09728242       3.74378397
C        3.93762157      -1.95586085       0.32412770
N        1.65943426      -6.50956349      10.28595291
H        0.74528638      -6.08878893      10.18324518
C        2.06823083      -7.27485908      11.35325703
C        3.36916874      -7.64466240      11.09385198
C        1.17651843      -7.57056783      12.50180424
H        5.13694212      -6.72266459       8.22495091
H        5.30788527      -8.30636777       8.98696835
H        5.89016718      -6.84405280       9.81722729
H        0.06088431      -2.60993291       4.71036531
H       -0.72910405      -2.48456073       3.13605404
H       -0.07506848      -1.03215428       3.92948745
H        4.91005089      -2.44735944       0.42966402
H        4.11441174      -0.88239951       0.20151755
H        3.46634464      -2.33407096      -0.58882369
H        0.19264329      -7.10614215      12.38090111
H        1.61452506      -7.19443637      13.43198985
H        1.02915174      -8.65074806      12.60224430
C        4.20904644      -8.45533062      11.93707347
C        4.91244402      -9.13426526      12.64327146
Br       6.04977840     -10.23204515      13.78513389
C       -0.00445707       0.01189536      -1.78238275
H       -0.66409135       0.67374010      -2.43557963
H        0.65740317      -0.63156657      -2.45157240
C       -0.90989263      -0.90692880      -0.91072765
C        0.90977584       0.90977584      -0.90977584
C       -0.00465871       1.77757030       0.00794375
H       -0.66225468       2.44313916      -0.64384735
H        0.64322798       2.43503045       0.67728295
C       -1.78241447       0.00034974      -0.00472694
H       -2.45427497      -0.65498947       0.64260836
H       -2.43311707       0.67328779      -0.65473579
C       -0.91132561       0.90220522       0.91563759
C       -0.01476271      -0.02253852       1.78660255
H       -0.67934791      -0.69751639       2.42135241
H        0.63392994       0.61504881       2.47327442
C        0.01484550      -1.77751727      -0.01636693
H        0.67870853      -2.42144646      -0.68295456
H       -0.62264859      -2.45592969       0.64226336
C        1.78714474       0.01002794       0.00389507
H        2.44202412       0.67113390       0.66197326
H        2.45385902      -0.65136977      -0.64189061
C        0.91606151      -0.90478549       0.90901405
