146
Properties=species:S:1:pos:R:3 pbc="F F F"
C        1.07994487       5.97321394      -3.82636618
C        1.99305655       5.21072156      -4.71322716
N        2.34831727       5.67892706      -5.95394464
H        2.03865651       6.54739285      -6.36785161
C        3.20409195       4.79955964      -6.54990286
C        3.41195317       3.72209970      -5.71255573
C        2.64007431       4.00021370      -4.54105403
C        2.57115587       3.13840495      -3.36316193
C        3.60221899       2.86636252      -2.48191773
C        5.01434513       3.32260083      -2.44853589
N        3.09474678       2.02567842      -1.52257765
H        3.60644698       1.65089147      -0.73555207
C        1.77775506       1.77775506      -1.77775506
C        1.40031373       2.44133993      -2.92790459
C        0.06017156       2.43696452      -3.57487142
C        4.26174991       2.52786745      -5.97087059
H        1.17631943       7.05134168      -3.99332063
H        1.30020786       5.78064776      -2.77150219
H        0.04047692       5.68867712      -4.01859073
H        5.38421987       3.38553679      -1.42004632
H        5.12048486       4.31379695      -2.89999022
H        5.65070622       2.62316269      -2.99929843
H       -0.60776729       3.13797651      -3.06402573
H       -0.39195827       1.44055698      -3.53976526
H        0.11702830       2.72482646      -4.62908550
H        5.31279722       2.76284890      -5.77414553
H        4.17037377       2.19550091      -7.01004431
H        3.97600496       1.68154727      -5.33868644
C        3.77974181       5.00538734      -7.85369050
C        4.26184856       5.17776805      -8.94561264
Br       5.04137440       5.45649307     -10.71115840
C       -6.30274387      -3.09107381      -1.48570731
C       -5.57382867      -4.20910774      -2.13406887
N       -6.18130105      -5.41431757      -2.38557034
H       -7.13908813      -5.64978675      -2.16502609
C       -5.29944568      -6.25490824      -2.99920053
C       -4.08356795      -5.61800237      -3.14503829
C       -4.27400370      -4.31102109      -2.59631725
C       -3.25246127      -3.26724427      -2.55301721
C       -2.70352863      -2.60843996      -3.63853065
C       -2.94980964      -2.73919176      -5.09648045
N       -1.79798723      -1.70514210      -3.13987353
H       -1.23518658      -1.06939025      -3.68831369
C       -1.77775506      -1.77775506      -1.77775506
C       -2.66252382      -2.75020419      -1.35683024
C       -2.94628230      -3.16854998       0.04282479
C       -2.84069343      -6.17093420      -3.74886033
H       -7.37003907      -3.12133708      -1.72960559
H       -5.91526353      -2.12177104      -1.81532325
H       -6.19845112      -3.15163961      -0.39765404
H       -2.79570630      -1.78447051      -5.60962617
H       -3.97635467      -3.06106673      -5.29685063
H       -2.26678170      -3.47570464      -5.53068100
H       -3.64158708      -2.46577988       0.51313201
H       -2.02893706      -3.19893922       0.63951232
H       -3.38867096      -4.16848690       0.08621761
H       -2.89423394      -6.11464324      -4.84091446
H       -2.69482807      -7.21777918      -3.46331173
H       -1.95152784      -5.62370269      -3.42100815
C       -5.63022969      -7.59316934      -3.41542061
C       -5.90726130      -8.71396302      -3.76400493
Br      -6.35519798     -10.52619160      -4.32763629
C       -5.71776772       0.92680683       4.23495045
C       -5.78922817       2.33986680       3.78791031
N       -6.92278033       3.09399772       3.96441091
H       -7.78063521       2.77797581       4.39528996
C       -6.71704552       4.35360997       3.48289897
C       -5.44228871       4.44319323       2.96112666
C       -4.85808156       3.15435948       3.16890100
C       -3.49552603       2.78524720       2.79194952
C       -2.32725089       3.27902572       3.34422262
C       -2.09116055       4.27610617       4.41821513
N       -1.28770488       2.65233733       2.70296064
H       -0.30501305       2.79960323       2.88827424
C       -1.77775506       1.77775506       1.77775506
C       -3.15722923       1.82948386       1.78284516
C       -4.09349116       1.05324652       0.92526981
C       -4.80855860       5.62900668       2.32292267
H       -6.35234623       0.75727703       5.11135848
H       -4.69476585       0.64923002       4.50836194
H       -6.05355960       0.25922115       3.43496402
H       -1.16897700       4.05540935       4.96541662
H       -2.91250053       4.28041846       5.14135304
H       -2.00374713       5.27937136       3.99004885
H       -4.22393239       0.04325489       1.32704766
H       -3.71544810       0.97182143      -0.09890556
H       -5.07780101       1.52761841       0.86552084
H       -4.44129057       6.31901008       3.08949100
H       -5.52234737       6.16479259       1.68877902
H       -3.96553029       5.34523519       1.68547320
C       -7.70621387       5.39886650       3.53373927
C       -8.53464237       6.27426885       3.57631802
Br      -9.87414119       7.68972041       3.64516427
C        2.08125880      -2.34362080       6.45464540
C        3.44225145      -2.56725975       5.90749407
N        4.53168491      -2.72081444       6.72868962
H        4.51701562      -2.69789813       7.73898722
C        5.65003440      -2.92795196       5.97556809
C        5.31480012      -2.89482050       4.63698799
C        3.90237330      -2.67184203       4.60712671
C        3.09690700      -2.58462981       3.39118595
C        2.83985536      -3.61082558       2.49981829
C        3.27011904      -5.03138541       2.48397741
N        2.03511264      -3.09168359       1.51620662
H        1.67242155      -3.59945639       0.72101258
C        1.77775506      -1.77775506       1.77775506
C        2.42926457      -1.40423447       2.93605921
C        2.43276553      -0.06153493       3.57770704
C        6.22704100      -3.06066809       3.47277886
H        1.96296114      -2.82846179       7.42955880
H        1.31451769      -2.75031220       5.78752793
H        1.89514743      -1.27219516       6.58040219
H        2.51665427      -5.66633667       2.00681204
H        3.42638056      -5.40861941       3.49927207
H        4.20759415      -5.13625839       1.92931480
H        1.51624279       0.08120782       4.15919997
H        2.49420666       0.73406697       2.82822428
H        3.28742874       0.06564261       4.24915412
H        6.42799259      -4.12276454       3.29903452
H        7.18123693      -2.55155897       3.64312308
H        5.79907222      -2.63908896       2.55807751
C        6.95936418      -3.14530657       6.53414890
C        8.05592786      -3.32734106       7.00196033
Br       9.82897859      -3.62167543       7.75837184
C       -0.00445707       0.01189536      -1.78238275
H       -0.66409135       0.67374010      -2.43557963
H        0.65740317      -0.63156657      -2.45157240
C       -0.90989263      -0.90692880      -0.91072765
C        0.90977584       0.90977584      -0.90977584
C       -0.00465871       1.77757030       0.00794375
H       -0.66225468       2.44313916      -0.64384735
H        0.64322798       2.43503045       0.67728295
C       -1.78241447       0.00034974      -0.00472694
H       -2.45427497      -0.65498947       0.64260836
H       -2.43311707       0.67328779      -0.65473579
C       -0.91132561       0.90220522       0.91563759
C       -0.01476271      -0.02253852       1.78660255
H       -0.67934791      -0.69751639       2.42135241
H        0.63392994       0.61504881       2.47327442
C        0.01484550      -1.77751727      -0.01636693
H        0.67870853      -2.42144646      -0.68295456
H       -0.62264859      -2.45592969       0.64226336
C        1.78714474       0.01002794       0.00389507
H        2.44202412       0.67113390       0.66197326
H        2.45385902      -0.65136977      -0.64189061
C        0.91606151      -0.90478549       0.90901405
