154
Properties=species:S:1:pos:R:3 pbc="F F F"
C        1.09951739      10.47686664      -5.66762285
C        2.41936659      10.34397952      -6.33553445
N        2.93735778      11.34247074      -7.12405041
H        2.49508207      12.22941192      -7.32270672
C        4.15396788      10.95862103      -7.60820078
C        4.45377886       9.69519997      -7.14175660
C        3.34136007       9.31330158      -6.33236899
C        3.17726290       8.08391289      -5.62683302
C        3.05337918       7.04395297      -5.04057101
C        2.90369244       5.71545701      -4.29957810
C        2.77704308       4.67240624      -3.71617878
C        2.60822280       3.43960966      -3.01975318
C        3.54409868       2.42175893      -2.99010745
C        4.88702119       2.31033995      -3.61444606
N        3.01433776       1.41251616      -2.22342584
H        3.46190033       0.53061906      -2.01455792
C        1.77746855       1.77746855      -1.77746855
C        1.47574311       3.03893551      -2.24781632
C        0.23299195       3.82060658      -2.00446250
C        5.67745394       8.89577195      -7.42124791
Br       5.20976062      12.01601160      -8.72541199
H        0.62945448      11.44026114      -5.89032577
H        1.21205830      10.39972799      -4.58144949
H        0.42110082       9.68542462      -6.00193141
H        5.36176994       1.35142912      -3.38251501
H        5.54357442       3.10791396      -3.25223231
H        4.80995067       2.39375915      -4.70324737
H        0.26005966       4.79572418      -2.50024921
H        0.09561694       3.99743084      -0.93283394
H       -0.63999047       3.27992999      -2.38401430
H        5.65298383       7.92300741      -6.92075216
H        6.56923213       9.42592471      -7.07168754
H        5.77845132       8.71309543      -8.49592201
C       -0.77005422     -10.08184492      -6.39210774
C       -2.14541363     -10.00601820      -6.94744873
N       -2.64944552     -10.98156388      -7.77286953
H       -2.15994117     -11.81300029      -8.07425925
C       -3.92606967     -10.66163249      -8.13308753
C       -4.28042325      -9.46441427      -7.54589792
C       -3.13810230      -9.05566258      -6.79326577
C       -3.00962990      -7.87281792      -6.00556099
C       -2.91663924      -6.87264364      -5.34862028
C       -2.80700109      -5.59507067      -4.51665578
C       -2.71172016      -4.59138992      -3.86251801
C       -2.57953616      -3.40410321      -3.08394626
C       -3.58294948      -2.46957561      -2.90343997
C       -4.97615798      -2.42017114      -3.41547808
N       -3.06976648      -1.48077920      -2.09973407
H       -3.56333314      -0.65553816      -1.78820601
C       -1.77746855      -1.77746855      -1.77746855
C       -1.42166991      -2.97230126      -2.36852376
C       -0.10885235      -3.66771292      -2.28149576
C       -5.57849356      -8.74714146      -7.66883878
Br      -4.98666804     -11.71445685      -9.25005932
H       -0.24918477     -10.98526533      -6.72559130
H       -0.80056170     -10.09477406      -5.29790003
H       -0.18121730      -9.21594503      -6.71129452
H       -5.50061273      -1.52226790      -3.07283344
H       -5.54057018      -3.29248374      -3.07066677
H       -4.98065339      -2.41613380      -4.51017000
H       -0.10316323      -4.60238313      -2.85048669
H        0.12673604      -3.91196942      -1.24064834
H        0.68836313      -3.03212217      -2.68019479
H       -5.58621262      -7.81536786      -7.09516292
H       -6.39757764      -9.37155323      -7.29771351
H       -5.77860035      -8.49392523      -8.71494317
C      -10.38650700       1.00971688       5.84778300
C      -10.30490161       2.38053050       6.41344845
N      -11.32313996       2.91814661       7.16259236
H      -12.19286857       2.45876485       7.39556729
C      -10.98627125       4.18144700       7.55307142
C       -9.73474470       4.49307890       7.06291183
C       -9.31047361       3.33854960       6.33800743
C       -8.07631018       3.16970724       5.64199139
C       -7.03439846       3.04388380       5.05962091
C       -5.70585412       2.89414898       4.31872444
C       -4.66472448       2.76940885       3.73149476
C       -3.43596295       2.60459865       3.02702404
C       -2.42772420       3.55002704       2.97821383
C       -2.32355672       4.90015617       3.58809430
N       -1.42086498       3.02263491       2.20677986
H       -0.54589752       3.47708425       1.98409553
C       -1.77746855       1.77746855       1.77746855
C       -3.03094502       1.46780207       2.26374785
C       -3.80194632       0.21444716       2.04166754
C       -8.98246717       5.76361272       7.24839391
Br     -12.08419849       5.27752559       8.58946013
H      -11.33238921       0.52225004       6.10540215
H       -9.57136730       0.38882337       6.23304512
H      -10.31021748       1.04202756       4.75621181
H       -1.37292125       5.38312908       3.33966374
H       -2.39254809       4.83263511       4.67853749
H       -3.13280453       5.54442297       3.22972969
H       -4.77253186       0.23701085       2.54649035
H       -3.24862006      -0.64856032       2.42582197
H       -3.98742450       0.06312618       0.97340313
H       -8.00943053       5.73887217       6.74844070
H       -8.80378600       5.95094311       8.31211526
H       -9.54606642       6.60626803       6.83513431
C       10.32429496      -0.95352908       5.96618285
C       10.25302562      -2.33233730       6.51351763
N       11.26853270      -2.86661011       7.26873613
H       12.12936042      -2.39934773       7.51849256
C       10.94287289      -4.13889926       7.63901754
C        9.70165793      -4.45995817       7.12911934
C        9.27187869      -3.30172455       6.41342741
C        8.04450107      -3.13955167       5.70395606
C        7.00846501      -3.01942250       5.11001566
C        5.68752761      -2.87696818       4.35423175
C        4.65234825      -2.75785058       3.75542926
C        3.43052902      -2.59953398       3.03752264
C        2.43507931      -3.55684429       2.96404146
C        2.34043372      -4.91581643       3.55555705
N        1.43135923      -3.03236775       2.18655277
H        0.56510166      -3.49489503       1.94708061
C        1.77746855      -1.77746855       1.77746855
C        3.02070679      -1.45830095       2.28348720
C        3.77844299      -0.19264769       2.08697035
C        8.96332015      -5.74208749       7.28906617
Br      12.04154892      -5.23419603       8.67543926
H       11.26059792      -0.45754361       6.24189988
H        9.49655930      -0.34786074       6.34881575
H       10.26212713      -0.97291900       4.87341072
H        1.39920583      -5.40748511       3.28902313
H        2.39487122      -4.86129899       4.64755049
H        3.16223792      -5.54527010       3.19944917
H        4.74282509      -0.20944313       2.60376484
H        3.20941583       0.65839575       2.47486164
H        3.97537479      -0.02544636       1.02313267
H        7.99639855      -5.72320819       6.77713666
H        8.77369893      -5.94514946       8.34799599
H        9.54272526      -6.57228318       6.87246032
C       -0.00445707       0.01189536      -1.78238275
H       -0.66409135       0.67374010      -2.43557963
H        0.65740317      -0.63156657      -2.45157240
C       -0.90989263      -0.90692880      -0.91072765
C        0.90977584       0.90977584      -0.90977584
C       -0.00465871       1.77757030       0.00794375
H       -0.66225468       2.44313916      -0.64384735
H        0.64322798       2.43503045       0.67728295
C       -1.78241447       0.00034974      -0.00472694
H       -2.45427497      -0.65498947       0.64260836
H       -2.43311707       0.67328779      -0.65473579
C       -0.91132561       0.90220522       0.91563759
C       -0.01476271      -0.02253852       1.78660255
H       -0.67934791      -0.69751639       2.42135241
H        0.63392994       0.61504881       2.47327442
C        0.01484550      -1.77751727      -0.01636693
H        0.67870853      -2.42144646      -0.68295456
H       -0.62264859      -2.45592969       0.64226336
C        1.78714474       0.01002794       0.00389507
H        2.44202412       0.67113390       0.66197326
H        2.45385902      -0.65136977      -0.64189061
C        0.91606151      -0.90478549       0.90901405
