141
Properties=species:S:1:pos:R:3 pbc="F F F"
C        0.00000000       0.00000000       0.00000000
C        0.18961337       9.56696262      -4.75771883
C        1.50946257       9.43407549      -5.42563043
N        2.02745375      10.43256672      -6.21414639
H        1.58517805      11.31950789      -6.41280270
C        3.24406385      10.04871701      -6.69829675
C        3.54387484       8.78529595      -6.23185258
C        2.43145605       8.40339756      -5.42246497
C        2.26735888       7.17400887      -4.71692900
C        2.14347516       6.13404894      -4.13066699
C        1.99378842       4.80555298      -3.38967408
C        1.86713905       3.76250221      -2.80627476
C        1.69831877       2.52970564      -2.10984915
C        2.63419466       1.51185491      -2.08020343
C        3.97711716       1.40043592      -2.70454204
N        2.10443373       0.50261214      -1.31352181
H        2.55199630      -0.37928497      -1.10465389
C        0.86756453       0.86756453      -0.86756453
C        0.56583909       2.12903148      -1.33791230
C       -0.67691208       2.91070255      -1.09455848
C        4.76754992       7.98586792      -6.51134389
H       -0.28044954      10.53035712      -4.98042175
H        0.30215428       9.48982397      -3.67154547
H       -0.48880321       8.77552060      -5.09202738
H        4.45186591       0.44152510      -2.47261098
H        4.63367039       2.19800994      -2.34232829
H        3.90004665       1.48385513      -3.79334335
H       -0.64984436       3.88582015      -1.59034519
H       -0.81428708       3.08752681      -0.02292992
H       -1.54989450       2.37002597      -1.47411028
H        4.74307980       7.01310339      -6.01084813
H        5.65932811       8.51602068      -6.16178351
H        4.86854730       7.80319140      -7.58601799
C        4.05894312      10.86482950      -7.56057986
C        4.74140451      11.54832372      -8.28274197
Br       5.84488686      12.65347606      -9.45041702
C        0.05699674      -9.28990349      -5.28138806
C       -1.30425542      -9.19691412      -5.86799895
N       -1.81170128     -10.17923138      -6.68323420
H       -1.33409137     -11.02725734      -6.95613993
C       -3.07310822      -9.84010830      -7.07786109
C       -3.41375803      -8.62313085      -6.52413448
C       -2.27909672      -8.22251484      -5.75570702
C       -2.14172497      -7.02582072      -4.99075104
C       -2.04100804      -6.01380112      -4.35338194
C       -1.92134367      -4.72105903      -3.54661278
C       -1.81820159      -3.70564430      -2.91207013
C       -1.67682895      -2.50478782      -2.15625680
C       -2.66329450      -1.54540844      -2.01755006
C       -4.04388389      -1.47750733      -2.56070390
N       -2.14595135      -0.55051366      -1.22410267
H       -2.62797223       0.29162678      -0.94101978
C       -0.86756453      -0.86756453      -0.86756453
C       -0.52533616      -2.08227241      -1.42517429
C        0.76989616      -2.80341394      -1.29483118
C       -4.69301002      -7.88123329      -6.69051842
H        0.56507477     -10.21124576      -5.58415833
H        0.00293078      -9.27837904      -4.18807545
H        0.67118786      -8.44388079      -5.60605185
H       -4.55586056      -0.56140410      -2.24873733
H       -4.63434652      -2.32990238      -2.20975972
H       -4.02498769      -1.49718492      -3.65507251
H        0.76736585      -3.75014748      -1.84353935
H        0.97790745      -3.02993439      -0.24414270
H        1.58905277      -2.19375859      -1.68953593
H       -4.69267143      -6.93724992      -6.13710997
H       -5.53319503      -8.47984904      -6.32408823
H       -4.86524938      -7.64662685      -7.74588045
C       -3.89063990     -10.65364561      -7.94006697
C       -4.57532268     -11.33498311      -8.66216441
Br      -5.68239683     -12.43664822      -9.82973488
C       -9.45237863       0.07742432       4.98449187
C       -9.37480197       1.45142793       5.54293858
N      -10.39197945       1.98771480       6.29447261
H      -11.25824172       1.52519241       6.53405451
C      -10.05947872       3.25460063       6.67699826
C       -8.81196699       3.56998843       6.17906794
C       -8.38554729       2.41397887       5.45779242
C       -7.15402451       2.24779222       4.75648000
C       -6.11439951       2.12423642       4.16955517
C       -4.78881595       1.97740121       3.42279831
C       -3.75000250       1.85490060       2.83101292
C       -2.52394351       1.69267708       2.12125297
C       -1.52068361       2.64283883       2.06273055
C       -1.42022306       3.99649073       2.66538134
N       -0.51504647       2.11660818       1.28891303
H        0.35653013       2.57427554       1.05961982
C       -0.86756453       0.86756453       0.86756453
C       -2.11705516       0.55411309       1.36161462
C       -2.88289221      -0.70414115       1.14959790
C       -8.06512037       4.84514590       6.35449546
H      -10.39453043      -0.41343729       5.24923619
H       -8.63225407      -0.53749138       5.36876102
H       -9.38166526       0.10467231       3.89240721
H       -0.47325015       4.48292788       2.40982397
H       -1.48346857       3.93406379       3.75647626
H       -2.23443898       4.63494240       2.30786375
H       -3.85106272      -0.68387532       1.65913357
H       -2.32337346      -1.56246872       1.53526491
H       -3.07290930      -0.86170226       0.08303471
H       -7.09446380       4.82273969       5.84982783
H       -7.88210211       5.03865919       7.41637101
H       -8.63495476       5.68292580       5.93987612
C      -10.90710656       4.10033653       7.47690940
C      -11.61699487       4.80864035       8.14683498
Br     -12.76482423       5.95390772       9.23004799
C        9.42351533      -0.05160182       5.03917766
C        9.35073214      -1.42927740       5.58915895
N       10.36664117      -1.96402636       6.34349933
H       11.22877410      -1.49788249       6.59083205
C       10.03933916      -3.23504137       6.71669708
C        8.79661167      -3.55476177       6.20964993
C        8.36763830      -2.39705184       5.49262844
C        7.13926459      -2.23393119       4.78510096
C        6.10236616      -2.11299295       4.19283198
C        4.78031245      -1.96950434       3.43919869
C        3.74426000      -1.84958810       2.84206793
C        2.52142221      -1.69034924       2.12610212
C        1.52409627      -2.64597215       2.05618457
C        1.42805376      -4.00368845       2.65035291
N        0.51991565      -2.12108155       1.27957047
H       -0.34761969      -2.58246167       1.04252325
C        0.86756453      -0.86756453       0.86756453
C        2.11230477      -0.54974621       1.37073190
C        2.87198700       0.71416056       1.17052252
C        8.05623095      -4.83524663       6.37328415
H       10.36122303       0.44317452       5.31228081
H        8.59758554       0.55627396       5.42221213
H        9.35931641      -0.07287044       3.94655793
H        0.48544579      -4.49412229       2.38643392
H        1.48458500      -3.94727974       3.74214389
H        2.24805720      -4.63529030       2.29389762
H        3.83727919       0.69654593       1.68558773
H        2.30522181       1.56694768       1.55789551
H        3.06727989       0.87906208       0.10602394
H        7.08841195      -4.81553465       5.86308472
H        7.86817428      -5.03603098       7.43292705
H        8.63335961      -5.66725739       5.95713969
C       10.88723349      -4.08049814       7.51662085
C       11.59734500      -4.78856819       8.18655701
Br      12.74553524      -5.93345758       9.26978712
