130
Properties=species:S:1:pos:R:3 pbc="F F F"
C        1.83405003       1.83405003      -1.83405003
H        2.71520876       2.02311488      -1.21309774
C        1.12116524       3.10559139      -2.12975704
C       -0.19205983       3.46502139      -2.36431055
C       -0.19192703       4.85495789      -2.63241576
C        1.11969015       5.25812960      -2.55741882
O        1.92163074       4.20848173      -2.24963208
C        2.20628264       1.04924816      -3.09391155
C        3.16405352       1.77702302      -4.05611736
C        4.49520582       2.21702395      -3.44052428
H        4.34030721       2.96159486      -2.65401343
C        5.35641935       1.11148211      -2.94247144
C        6.28597992       1.03223244      -1.92345198
C        6.78691969      -0.29167974      -1.93739378
C        6.13234626      -0.93797344      -2.95836945
O        5.26400767      -0.09632898      -3.57358893
Br       5.53061459       3.17361259      -4.81210544
H       -1.05075518       2.80593551      -2.34442089
H       -1.04060663       5.48490227      -2.85894006
H        1.62078801       6.20669709      -2.69097626
H        2.65366321       0.08894713      -2.80760882
H        1.29810267       0.79527215      -3.65788040
H        2.64826542       2.65215615      -4.47247319
H        3.34470279       1.11437075      -4.91362591
H        6.57528946       1.83637173      -1.26071918
H        7.53708695      -0.72173679      -1.28865623
H        6.17153415      -1.94231546      -3.35695839
C       -1.83405003      -1.83405003      -1.83405003
H       -2.62142451      -2.17522022      -1.15477666
C       -1.03754309      -2.98762759      -2.33134299
C        0.27160263      -3.18033145      -2.72854329
C        0.37689089      -4.52993985      -3.14239766
C       -0.87415570      -5.07632996      -2.98475291
O       -1.73609553      -4.15301758      -2.49063144
C       -2.41276019      -0.97568089      -2.96100127
C       -3.39319069      -1.70542409      -3.89857912
C       -4.60223788      -2.34249401      -3.20802216
H       -4.29306950      -3.13861995      -2.52422605
C       -5.50788925      -1.38855825      -2.51392540
C       -6.32649811      -1.50778033      -1.40738590
C       -6.95141483      -0.24985607      -1.23136283
C       -6.47512388       0.55814886      -2.23576724
O       -5.60040013      -0.12257534      -3.01829216
Br      -5.68117951      -3.26747632      -4.56767679
H        1.05990171      -2.43825405      -2.72124887
H        1.25328308      -5.04076451      -3.51575426
H       -1.29280786      -6.05568889      -3.16996460
H       -2.91751158      -0.10081710      -2.53189048
H       -1.59881704      -0.57288447      -3.57955372
H       -2.84285978      -2.47615090      -4.45388408
H       -3.72752769      -0.98626704      -4.65890472
H       -6.46439329      -2.39839089      -0.80959620
H       -7.66591391       0.03296557      -0.47105804
H       -6.65338406       1.58628733      -2.51908035
C       -1.83405003       1.83405003       1.83405003
H       -1.31450284       1.83964090       2.79727765
C       -3.17745925       1.20996587       1.96908855
C       -4.01201198       0.48380702       1.14145310
C       -5.19178093       0.22425475       1.87941094
C       -5.01247419       0.81615596       3.10660842
O       -3.79555581       1.41141550       3.17277324
C       -1.88421404       3.23797454       1.22725378
C       -2.67575527       4.27453575       2.04690289
C       -2.19584715       4.46903956       3.48786734
H       -2.32603780       3.55500678       4.07487092
C       -0.80536737       4.97818103       3.62682450
C        0.16360872       4.80838705       4.59688602
C        1.29186756       5.55107798       4.17342330
C        0.94473877       6.12398696       2.97349408
O       -0.32394667       5.78330431       2.63401664
Br      -3.37314157       5.77715452       4.36603653
H       -3.79829581       0.17541477       0.12589063
H       -6.06761271      -0.32060399       1.55622698
H       -5.62371271       0.90044689       3.99430175
H       -0.86210366       3.60898287       1.07913263
H       -2.33111716       3.19580756       0.22433050
H       -3.73507924       3.98633563       2.05147989
H       -2.63944036       5.22909352       1.50416557
H        0.06201737       4.22962158       5.50477616
H        2.23946963       5.66176162       4.68171439
H        1.45816025       6.76976099       2.27457634
C        1.83405003      -1.83405003       1.83405003
H        1.35689998      -1.77718015       2.81734125
C        3.20677911      -1.26363726       1.88609730
C        4.03413151      -0.60924554       0.99389505
C        5.25448939      -0.37061213       1.67034509
C        5.10406962      -0.90277415       2.92839480
O        3.86750898      -1.44154212       3.07069345
C        1.79961321      -3.26279441       1.28703473
C        2.58220595      -4.29774871       2.11723924
C        2.15746559      -4.41134783       3.58394063
H        2.35075168      -3.48024182       4.12492199
C        0.75437948      -4.85361991       3.80237350
C       -0.16381891      -4.60194316       4.80354010
C       -1.33919008      -5.31202823       4.45979558
C       -1.06839440      -5.94871393       3.27242274
O        0.19744787      -5.67764459       2.86617516
Br       3.31638468      -5.73163726       4.46831068
H        3.78963435      -0.33428988      -0.02432301
H        6.13736073       0.12194706       1.28782203
H        5.74913631      -0.97654379       3.79278125
H        0.75753802      -3.59503719       1.19764395
H        2.20404904      -3.28165636       0.26554982
H        3.65177885      -4.05573122       2.06538469
H        2.48286158      -5.27153383       1.61830404
H        0.00090002      -3.99095071       5.68052965
H       -2.26767736      -5.36040721       5.01127653
H       -1.63793693      -6.60009821       2.62401581
C       -0.00445707       0.01189536      -1.78238275
H       -0.66409135       0.67374010      -2.43557963
H        0.65740317      -0.63156657      -2.45157240
C       -0.90989263      -0.90692880      -0.91072765
C        0.90977584       0.90977584      -0.90977584
C       -0.00465871       1.77757030       0.00794375
H       -0.66225468       2.44313916      -0.64384735
H        0.64322798       2.43503045       0.67728295
C       -1.78241447       0.00034974      -0.00472694
H       -2.45427497      -0.65498947       0.64260836
H       -2.43311707       0.67328779      -0.65473579
C       -0.91132561       0.90220522       0.91563759
C       -0.01476271      -0.02253852       1.78660255
H       -0.67934791      -0.69751639       2.42135241
H        0.63392994       0.61504881       2.47327442
C        0.01484550      -1.77751727      -0.01636693
H        0.67870853      -2.42144646      -0.68295456
H       -0.62264859      -2.45592969       0.64226336
C        1.78714474       0.01002794       0.00389507
H        2.44202412       0.67113390       0.66197326
H        2.45385902      -0.65136977      -0.64189061
C        0.91606151      -0.90478549       0.90901405
