138
Properties=species:S:1:pos:R:3 pbc="F F F"
C        1.83405003       1.83405003      -1.83405003
H        2.71520876       2.02311488      -1.21309774
C        1.12116524       3.10559139      -2.12975704
C       -0.19205983       3.46502139      -2.36431055
C       -0.19192703       4.85495789      -2.63241576
C        1.11969015       5.25812960      -2.55741882
O        1.92163074       4.20848173      -2.24963208
C        2.20628264       1.04924816      -3.09391155
C        3.16405352       1.77702302      -4.05611736
C        4.49520582       2.21702395      -3.44052428
H        4.34030721       2.96159486      -2.65401343
C        5.35641935       1.11148211      -2.94247144
C        6.28597992       1.03223244      -1.92345198
C        6.78691969      -0.29167974      -1.93739378
C        6.13234626      -0.93797344      -2.95836945
O        5.26400767      -0.09632898      -3.57358893
H       -1.05075518       2.80593551      -2.34442089
H       -1.04060663       5.48490227      -2.85894006
H        1.62078801       6.20669709      -2.69097626
H        2.65366321       0.08894713      -2.80760882
H        1.29810267       0.79527215      -3.65788040
H        2.64826542       2.65215615      -4.47247319
H        3.34470279       1.11437075      -4.91362591
H        6.57528946       1.83637173      -1.26071918
H        7.53708695      -0.72173679      -1.28865623
H        6.17153415      -1.94231546      -3.35695839
C        5.25327779       2.91738796      -4.44472403
C        5.88816306       3.50394281      -5.28574133
Br       6.91471885       4.45235241      -6.64559516
C       -1.83405003      -1.83405003      -1.83405003
H       -2.45580540      -2.37880437      -1.11681162
C       -0.97740983      -2.77576499      -2.60333884
C        0.26926096      -2.71123695      -3.19529612
C        0.48777406      -3.96189290      -3.82132777
C       -0.64077964      -4.70954652      -3.58491241
O       -1.53147162      -4.00292886      -2.84534407
C       -2.68718470      -0.93283425      -2.72942341
C       -3.69426505      -1.67345316      -3.62947569
C       -4.68801418      -2.57408221      -2.89065766
H       -4.17498685      -3.39692995      -2.38399871
C       -5.59492582      -1.87067122      -1.94477585
C       -6.21120427      -2.25947876      -0.77098132
C       -6.96286780      -1.14671830      -0.32304763
C       -6.75742367      -0.14939705      -1.24592155
O       -5.93054955      -0.57828351      -2.23243457
H        0.94400725      -1.86471711      -3.17889135
H        1.35646900      -4.27836213      -4.38134257
H       -0.94936620      -5.70821108      -3.86088407
H       -3.23163649      -0.21031291      -2.10826976
H       -2.03827250      -0.33170577      -3.38127696
H       -3.13831441      -2.27029140      -4.36428895
H       -4.23346768      -0.91969493      -4.21953685
H       -6.13663108      -3.23196190      -0.30378740
H       -7.58352161      -1.07998817       0.55950340
H       -7.11163096       0.86764795      -1.34219408
C       -5.52438764      -3.22641075      -3.86459138
C       -6.22485042      -3.77273590      -4.68026088
Br      -7.35743949      -4.65609747      -5.99912946
C       -1.83405003       1.83405003       1.83405003
H       -1.40365790       1.71458455       2.83317894
C       -3.23064768       1.32317177       1.80269422
C       -4.04471327       0.74433083       0.84822801
C       -5.30277959       0.53145045       1.46121658
C       -5.18571983       1.00272484       2.74679390
O       -3.93496390       1.47981062       2.96497004
C       -1.71503560       3.28174560       1.35266115
C       -2.48905226       4.31421199       2.19392966
C       -2.12512160       4.34675368       3.68087876
H       -2.38136017       3.40303973       4.17151560
C       -0.71560090       4.71694262       3.97782937
C        0.14597856       4.38278650       5.00485642
C        1.36439095       5.05414269       4.74288199
C        1.17352463       5.75185458       3.57441231
O       -0.08346332       5.55443062       3.10337368
H       -3.76731025       0.50217725      -0.16988629
H       -6.18793656       0.09502207       1.02027706
H       -5.86465758       1.06828312       3.58552065
H       -0.65690152       3.57109399       1.32222365
H       -2.07277035       3.36167716       0.31680772
H       -3.56457165       4.12211279       2.08621032
H       -2.32663137       5.30289742       1.74317066
H       -0.08304870       3.74310333       5.84622835
H        2.26881286       5.03805664       5.33476260
H        1.79822403       6.40428860       2.98011253
C       -2.95973746       5.32168599       4.33396633
C       -3.65872824       6.13819179       4.88092717
Br      -4.78893721       7.45841262       5.76531659
C        1.83405003      -1.83405003       1.83405003
H        1.49262075      -1.60948487       2.84931577
C        3.25721873      -1.43720640       1.66208853
C        4.03410808      -0.99410363       0.60906040
C        5.34821909      -0.83619121       1.11103632
C        5.29797313      -1.20273714       2.43452830
O        4.03682610      -1.56384406       2.77907439
C        1.57353180      -3.29906184       1.47684871
C        2.33410824      -4.32520198       2.33788369
C        2.08580377      -4.22169990       3.84525037
H        2.44705744      -3.26784232       4.24101574
C        0.68066004      -4.45844475       4.27126810
C       -0.07181843      -3.98477550       5.32870728
C       -1.35227913      -4.57628243       5.20863042
C       -1.30401964      -5.36938582       4.08737609
O       -0.07660421      -5.30512055       3.51275129
H        3.69641433      -0.80529498      -0.40210810
H        6.22553444      -0.50311393       0.57458732
H        6.03370744      -1.26022081       3.22453310
H        0.49810532      -3.50648317       1.54563068
H        1.84271042      -3.48130783       0.42723697
H        3.40902143      -4.22582110       2.13805223
H        2.06599835      -5.32820709       1.97849401
H        0.26774207      -3.30575035       6.09888796
H       -2.20427207      -4.44699679       5.86128166
H       -2.01867093      -6.01238428       3.59246374
C        2.89612525      -5.20895934       4.51030519
C        3.57476949      -6.03578911       5.06728860
Br       4.67207983      -7.37270292       5.96788367
C       -0.00445707       0.01189536      -1.78238275
H       -0.66409135       0.67374010      -2.43557963
H        0.65740317      -0.63156657      -2.45157240
C       -0.90989263      -0.90692880      -0.91072765
C        0.90977584       0.90977584      -0.90977584
C       -0.00465871       1.77757030       0.00794375
H       -0.66225468       2.44313916      -0.64384735
H        0.64322798       2.43503045       0.67728295
C       -1.78241447       0.00034974      -0.00472694
H       -2.45427497      -0.65498947       0.64260836
H       -2.43311707       0.67328779      -0.65473579
C       -0.91132561       0.90220522       0.91563759
C       -0.01476271      -0.02253852       1.78660255
H       -0.67934791      -0.69751639       2.42135241
H        0.63392994       0.61504881       2.47327442
C        0.01484550      -1.77751727      -0.01636693
H        0.67870853      -2.42144646      -0.68295456
H       -0.62264859      -2.45592969       0.64226336
C        1.78714474       0.01002794       0.00389507
H        2.44202412       0.67113390       0.66197326
H        2.45385902      -0.65136977      -0.64189061
C        0.91606151      -0.90478549       0.90901405
