146
Properties=species:S:1:pos:R:3 pbc="F F F"
C        1.83290060       1.83290060      -1.83290060
H        1.74651164       1.36726497      -2.82170207
C        3.24902822       1.75581290      -1.37493749
C        3.87720225       1.71522533      -0.14331747
C        5.26874998       1.68296473      -0.39803266
C        5.40699791       1.70668394      -1.76463424
O        4.19110538       1.75355901      -2.36592279
C        1.27827061       3.26054345      -1.90869183
C        1.35582664       3.98650713      -0.62921244
C        1.50102550       4.47086188       0.45890729
C        1.79858391       4.89677418       1.89349520
C        2.12255073       5.02578027       3.04233547
C        2.58419860       4.98071739       4.43913472
C        3.65845107       3.90559539       4.63276066
H        4.45143609       4.00397106       3.88214561
C        4.23053826       3.90541046       6.00468388
C        3.70865318       3.69748208       7.26725495
C        4.79256366       3.79789742       8.17138580
C        5.90258369       4.07425965       7.40964431
O        5.57094604       4.14959458       6.09585198
Br       2.90736021       2.10820305       4.32661838
H        3.38980094       1.71518471       0.82280168
H        6.07099949       1.64920671       0.32568571
H        6.25830357       1.69840436      -2.43095388
H        1.83980435       3.82350098      -2.66325572
H        0.23475678       3.23709802      -2.24533295
H        1.72713085       4.80309684       5.10101140
H        2.99168378       5.96303662       4.71098057
H        2.67640134       3.47505304       7.50216364
H        4.77006375       3.67509273       9.24500116
H        6.94760875       4.23203038       7.63763646
C       -1.83290060      -1.83290060      -1.83290060
H       -2.79086604      -1.84478697      -1.29982567
C       -1.28063122      -3.21622505      -1.88292234
C       -0.01130334      -3.75957555      -1.96486616
C       -0.17321039      -5.16452724      -2.01200975
C       -1.52648934      -5.39455856      -1.95726819
O       -2.20649886      -4.22237314      -1.88171519
C       -2.04212876      -1.19415990      -3.21121723
C       -0.81323475      -1.13676640      -4.02154506
C        0.24610247      -1.17539971      -4.58368285
C        1.66418175      -1.34566200      -5.12038264
C        2.81988465      -1.58094161      -5.34493856
C        4.24326054      -1.94744052      -5.42160129
C        4.57897869      -3.07273620      -4.43752829
H        3.87591370      -3.90746469      -4.54171055
C        5.98160463      -3.54800880      -4.56486067
C        7.21931136      -2.95503512      -4.40315655
C        8.18221146      -3.96554184      -4.63574490
C        7.47621872      -5.10522051      -4.93819723
O        6.14175903      -4.86050391      -4.90594375
Br       4.34943712      -2.46157049      -2.57681151
H        0.91919664      -3.20794192      -1.99343869
H        0.60119161      -5.91564793      -2.08006416
H       -2.13455363      -6.28841222      -1.96469595
H       -2.79593384      -1.76886839      -3.76175882
H       -2.44275050      -0.17992066      -3.09451660
H        4.85930743      -1.06010692      -5.22841679
H        4.47258515      -2.27128240      -6.44504258
H        7.40210236      -1.92551961      -4.12587349
H        9.25805554      -3.87725084      -4.58096002
H        7.75953911      -6.11979577      -5.18174601
C       -1.83290060       1.83290060       1.83290060
H       -1.79371602       1.33358802       2.80817464
C       -3.23501354       1.81674923       1.32801584
C       -3.82351545       1.83578909       0.07644051
C       -5.22297672       1.84103053       0.28574013
C       -5.40505309       1.82594453       1.64731847
O       -4.20861525       1.81392585       2.28804609
C       -1.23608756       3.23850885       1.97290948
C       -1.24868633       4.00680117       0.71605871
C       -1.34277628       4.52988526      -0.35968145
C       -1.57958097       5.01055260      -1.78827069
C       -1.86152645       5.18643142      -2.94196234
C       -2.27841121       5.20078507      -4.35341501
C       -3.37928036       4.16807089      -4.61606545
H       -4.19288957       4.26851025      -3.88813828
C       -3.90588180       4.23008187      -6.00469884
C       -3.34980828       4.04529844      -7.25622641
C       -4.39982289       4.20973184      -8.19047945
C       -5.52486207       4.49799574      -7.45565879
O       -5.23417681       4.52076778      -6.13025595
Br      -2.69594385       2.33826310      -4.34526207
H       -3.30500407       1.85041216      -0.87323226
H       -6.00177864       1.85649526      -0.46375341
H       -6.27754343       1.82441913       2.28569925
H       -1.80389330       3.79534816       2.72731959
H       -0.20541690       3.17027011       2.34150074
H       -1.40620098       5.01627396      -4.99325865
H       -2.64544918       6.20403421      -4.60574356
H       -2.31798871       3.79676250      -7.46546047
H       -4.34610251       4.12033904      -9.26628622
H       -6.55634155       4.69702693      -7.71136581
C        1.83290060      -1.83290060       1.83290060
H        2.74610078      -1.95146885       1.23790905
C        1.19253704      -3.16530002       2.02194155
C       -0.10151512      -3.60715265       2.23010752
C       -0.03299234      -5.01368134       2.36905838
C        1.29372370      -5.34561339       2.23897900
O        2.04487831      -4.23440858       2.03130030
C        2.18588805      -1.11852833       3.14308951
C        1.02658358      -0.91584846       4.02911417
C        0.01120267      -0.83811893       4.66365849
C       -1.37197537      -0.86676489       5.30707337
C       -2.52145239      -1.00069144       5.62675648
C       -3.95707576      -1.25563928       5.82721774
C       -4.44023726      -2.41788380       4.95363926
H       -3.79012421      -3.29288188       5.07050386
C       -5.85893122      -2.77911655       5.21107951
C       -7.06173596      -2.10934795       5.09126832
C       -8.07177921      -3.02819418       5.46266030
C       -7.42504510      -4.19326818       5.79897594
O       -6.08295417      -4.04992763       5.65771518
Br      -4.30664046      -1.95382504       3.04176030
H       -0.98752288      -2.98805665       2.28165020
H       -0.84983426      -5.69952925       2.54482550
H        1.83817288      -6.27907948       2.27040944
H        2.93701654      -1.70803276       3.68151175
H        2.64524803      -0.14678117       2.92515855
H       -4.52354587      -0.34077094       5.61199122
H       -4.13226696      -1.49106619       6.88494059
H       -7.19358855      -1.09055986       4.75231944
H       -9.14018530      -2.86513524       5.47520538
H       -7.75840855      -5.16528855       6.13512267
C       -0.00445707       0.01189536      -1.78238275
H       -0.66409135       0.67374010      -2.43557963
H        0.65740317      -0.63156657      -2.45157240
C       -0.90989263      -0.90692880      -0.91072765
C        0.90977584       0.90977584      -0.90977584
C       -0.00465871       1.77757030       0.00794375
H       -0.66225468       2.44313916      -0.64384735
H        0.64322798       2.43503045       0.67728295
C       -1.78241447       0.00034974      -0.00472694
H       -2.45427497      -0.65498947       0.64260836
H       -2.43311707       0.67328779      -0.65473579
C       -0.91132561       0.90220522       0.91563759
C       -0.01476271      -0.02253852       1.78660255
H       -0.67934791      -0.69751639       2.42135241
H        0.63392994       0.61504881       2.47327442
C        0.01484550      -1.77751727      -0.01636693
H        0.67870853      -2.42144646      -0.68295456
H       -0.62264859      -2.45592969       0.64226336
C        1.78714474       0.01002794       0.00389507
H        2.44202412       0.67113390       0.66197326
H        2.45385902      -0.65136977      -0.64189061
C        0.91606151      -0.90478549       0.90901405
