109
Properties=species:S:1:pos:R:3 pbc="F F F"
C        0.00000000       0.00000000       0.00000000
C        0.92156313       0.92156313      -0.92156313
C        0.07123829       1.76827905      -1.87642987
H       -0.67887449       1.09847240      -2.32433198
C        0.92337496       2.31738753      -3.05757751
H        1.41103743       1.44550037      -3.51939762
C        2.01990991       3.23789494      -2.60169332
C        2.11637662       4.59841520      -2.38271116
C        3.44736754       4.84647232      -1.97059391
C        4.08004309       3.62685180      -1.96677856
O        3.22057409       2.64416405      -2.33742105
C        0.03330217       2.95628595      -4.13036993
Br       1.00494091       3.16808142      -5.81716275
C       -0.68154946       2.84727490      -1.15024315
C       -0.35814859       3.75585446      -0.16135861
C       -1.53839008       4.48505156       0.11737364
C       -2.50680894       3.97573995      -0.71294772
O       -1.99389400       2.99257789      -1.49619059
H        1.55738075       0.21686531      -1.46487877
H        1.53759569       1.51223128      -0.23875626
H        1.32478443       5.32549395      -2.50774932
H        3.89320030       5.79792793      -1.71734401
H        5.08700288       3.30703683      -1.73936277
H       -0.81577576       2.31440172      -4.38268162
H       -0.33451773       3.95052522      -3.86285905
H        0.60896476       3.87332799       0.30852512
H       -1.67020203       5.27581284       0.84350015
H       -3.55654626       4.19061540      -0.86026048
C       -0.92156313      -0.92156313      -0.92156313
C       -2.09283496      -1.50281219      -0.12030006
H       -1.68048149      -1.88829193       0.82484354
C       -2.72572088      -2.72448026      -0.84813887
H       -1.90288417      -3.42849786      -1.04455338
C       -3.31550772      -2.36224978      -2.18174066
C       -4.55655443      -1.93173418      -2.60921438
C       -4.46886869      -1.78180705      -4.01375803
C       -3.18523979      -2.13214998      -4.35628366
O       -2.47517396      -2.47518080      -3.25180442
C       -3.73024312      -3.44712657       0.05741164
Br      -4.12820963      -5.23994158      -0.62203387
C       -3.10395479      -0.45063213       0.23861832
C       -3.70345426       0.58927907      -0.44488929
C       -4.55202858       1.24296319       0.47977754
C       -4.41565198       0.56641419       1.66735906
O       -3.55147608      -0.47133320       1.52793479
H       -0.25064547      -1.70638065      -1.28209871
H       -1.23062967      -0.29548762      -1.76246593
H       -5.42201520      -1.75052713      -1.98548537
H       -5.24787368      -1.46698253      -4.69361602
H       -2.65018585      -2.18971863      -5.29349799
H       -3.31968413      -3.61839419       1.05677074
H       -4.69153463      -2.93397841       0.14664650
H       -3.54241154       0.85066470      -1.48202080
H       -5.17636884       2.10883658       0.30542160
H       -4.84014436       0.69155849       2.65425625
C       -0.92156313       0.92156313       0.92156313
C       -0.60832051       0.70112669       2.40650000
H       -0.55985315      -0.38638988       2.57046662
C       -1.76044377       1.22581027       3.31208596
H       -2.68111900       0.74006358       2.95475284
C       -1.97152015       2.70758517       3.18039284
C       -1.45905664       3.82113200       3.81731435
C       -2.08801332       4.94528431       3.23113614
C       -2.94518206       4.45020792       2.27828346
O       -2.87404015       3.09574524       2.23237380
C       -1.55875823       0.79219697       4.76900284
Br      -3.21585231       0.97900004       5.79533273
C        0.73287983       1.26256999       2.78627844
C        1.40022114       2.44173790       2.51754773
C        2.66273824       2.34305030       3.14897578
C        2.68941573       1.11254824       3.75874621
O        1.51841556       0.45569568       3.55759437
H       -1.94359573       0.61972011       0.67580899
H       -0.75653584       1.94795845       0.58408893
H       -0.72335238       3.82386997       4.61080535
H       -1.94206442       5.98703696       3.47937086
H       -3.63979379       4.90630698       1.58730171
H       -1.31071785      -0.27074866       4.84133840
H       -0.80235794       1.37502101       5.30148759
H        1.02608721       3.26947780       1.93037704
H        3.46026862       3.07372306       3.14865623
H        3.42897475       0.58109429       4.34221009
C        0.92156313      -0.92156313       0.92156313
C        1.95234306      -1.68370029       0.07990385
H        1.41678165      -2.10962043      -0.78247219
C        2.54207735      -2.89173251       0.86453015
H        1.68299102      -3.49153447       1.20140993
C        3.28945818      -2.47162108       2.09841890
C        4.59977324      -2.12827346       2.36945629
C        4.66367210      -1.84597679       3.75478489
C        3.39364837      -2.03710349       4.24292158
O        2.55118014      -2.40600415       3.24497489
C        3.38477322      -3.78699320      -0.05180838
Br       3.68604439      -5.54246889       0.76167179
C        3.01316458      -0.77169929      -0.46889527
C        3.76691248       0.26127669       0.05342869
C        4.57575457       0.74380153      -1.00266519
C        4.26408980      -0.01923174      -2.10144282
O        3.32872414      -0.95085896      -1.78470862
H        0.22192480      -1.60170361       1.41549642
H        1.36597474      -0.25633977       1.66626871
H        5.41272046      -2.08891769       1.65638955
H        5.53040420      -1.54960342       4.32846461
H        2.94989496      -1.95832128       5.22518624
H        2.86476503      -4.00558989      -0.98904733
H        4.37458482      -3.38038548      -0.27610377
H        3.73206975       0.62850448       1.07020236
H        5.28879344       1.55648767      -0.97019510
H        4.59941082      -0.02463762      -3.12971882
