122
Properties=species:S:1:pos:R:3 pbc="F F F"
C        1.76653108       1.76653108      -1.76653108
H        2.58593888       1.23665171      -2.23513154
C        1.57766325       3.17859255      -1.95749670
C        0.41144201       3.94666421      -1.40234556
C       -0.81064761       3.62078221      -2.09907642
C       -1.81790163       3.35218077      -2.67333544
C       -2.97566565       3.04344439      -3.33340236
C       -3.98292477       2.77484901      -3.90765527
C       -5.20500929       2.44896095      -4.60439224
C       -5.64286045       1.04409479      -4.29470652
C       -5.67639174       0.07928199      -5.36117714
H       -5.40859627       0.33748910      -6.37842668
Br      -6.14286438      -1.69191256      -5.12451514
C       -6.01933725       0.69270898      -2.88981389
C        2.62789130       3.94330483      -2.69752041
H        0.60486482       5.02313463      -1.48586043
H        0.31201175       3.74916660      -0.32881045
H       -5.06547667       2.58792522      -5.68304592
H       -6.00443313       3.14009029      -4.31155066
H       -6.11231729       1.58840608      -2.26716155
H       -5.25512577       0.05101841      -2.43728091
H       -6.98368315       0.17790565      -2.85108144
H        3.41525022       3.29278690      -3.09594604
H        3.10565221       4.67002557      -2.03046664
H        2.18592083       4.48470538      -3.53879144
C       -1.76653108      -1.76653108      -1.76653108
H       -2.02221033      -1.31768877      -2.71782303
C       -2.25775498      -3.06431532      -1.39168221
C       -1.86631170      -3.77008035      -0.12405973
C       -0.49864980      -4.22989890      -0.18066232
C        0.62859229      -4.60888274      -0.22732413
C        1.92427275      -5.04449686      -0.28095699
C        3.05151408      -5.42348415      -0.32760944
C        4.41917674      -5.88329925      -0.38422139
C        5.37813069      -4.72554227      -0.34852927
C        6.21474234      -4.48503582      -1.49377390
H        6.18289844      -5.11828483      -2.37193312
Br       7.40184767      -3.07557664      -1.61600923
C        5.42488712      -3.85725466       0.86918192
C       -3.26148317      -3.72866261      -2.27857077
H       -2.53339022      -4.62444851       0.04397885
H       -2.01851676      -3.10607038       0.73459835
H        4.56960846      -6.49004906      -1.28505386
H        4.63257258      -6.54419182       0.46441143
H        4.86212794      -4.30178833       1.69641006
H        4.98549115      -2.87609909       0.65743440
H        6.45087771      -3.71819826       1.22201661
H       -3.45275664      -3.15698605      -3.19424047
H       -4.21635444      -3.83808443      -1.75170554
H       -2.91339809      -4.72272787      -2.57329169
C       -1.76653108       1.76653108       1.76653108
H       -2.48420353       2.35943529       1.21408332
C       -1.66338204       1.85276254       3.19760792
C       -0.74698188       0.99237140       4.02109849
C       -1.21300827      -0.37349588       4.06969863
C       -1.59712014      -1.49925553       4.10974996
C       -2.03862683      -2.79323252       4.15578678
C       -2.42273069      -3.91899471       4.19584353
C       -2.88876509      -5.28485945       4.24443826
C       -2.74288955      -5.95129101       2.90434232
C       -3.92930764      -6.37539647       2.21015622
H       -4.91921434      -6.24044725       2.62855242
Br      -3.91146015      -7.16020410       0.53848215
C       -1.37343453      -6.14292873       2.33267983
C       -2.46524662       2.89624527       3.90722465
H       -0.68063447       1.39328246       5.03994294
H        0.27172363       1.04203838       3.61967403
H       -3.93115843      -5.30935203       4.58368806
H       -2.31616543      -5.85484260       4.98588499
H       -0.59873631      -5.93263437       3.07714840
H       -1.21338058      -5.46616246       1.48595542
H       -1.22040724      -7.17295814       1.99785484
H       -3.12968182       3.44486333       3.22943801
H       -1.79906539       3.62689931       4.38017971
H       -3.08520805       2.44001141       4.68419819
C        1.76653108      -1.76653108       1.76653108
H        1.24040431      -2.59617158       2.22114624
C        3.16198730      -1.53238358       2.01938163
C        3.96079252      -0.44996748       1.34969178
C        4.19526434      -0.75586707      -0.04192038
C        4.38851375      -1.00800147      -1.18890065
C        4.61064022      -1.29780982      -2.50726894
C        4.80389436      -1.54993548      -3.65425033
C        5.03836145      -1.85584381      -5.04586137
C        3.76291747      -1.77090486      -5.83788148
C        3.24879526      -2.96632985      -6.45105772
H        3.75808358      -3.91878091      -6.36954499
Br       1.67121334      -3.02780581      -7.40928096
C        3.06592393      -0.45201475      -5.95475307
C        3.84870912      -2.36994495       3.05006247
H        4.92145875      -0.32761206       1.86478907
H        3.44685341       0.51234471       1.45548009
H        5.49092348      -2.85050400      -5.13593302
H        5.76509168      -1.15349755      -5.47138142
H        3.69620605       0.36470661      -5.58824910
H        2.14394514      -0.45192811      -5.36269971
H        2.81988479      -0.22054293      -6.99512379
H        3.19715099      -3.15446743       3.45236474
H        4.17090416      -1.74463333       3.89060693
H        4.73045240      -2.85603101       2.62293424
C       -0.00445707       0.01189536      -1.78238275
H       -0.66409135       0.67374010      -2.43557963
H        0.65740317      -0.63156657      -2.45157240
C       -0.90989263      -0.90692880      -0.91072765
C        0.90977584       0.90977584      -0.90977584
C       -0.00465871       1.77757030       0.00794375
H       -0.66225468       2.44313916      -0.64384735
H        0.64322798       2.43503045       0.67728295
C       -1.78241447       0.00034974      -0.00472694
H       -2.45427497      -0.65498947       0.64260836
H       -2.43311707       0.67328779      -0.65473579
C       -0.91132561       0.90220522       0.91563759
C       -0.01476271      -0.02253852       1.78660255
H       -0.67934791      -0.69751639       2.42135241
H        0.63392994       0.61504881       2.47327442
C        0.01484550      -1.77751727      -0.01636693
H        0.67870853      -2.42144646      -0.68295456
H       -0.62264859      -2.45592969       0.64226336
C        1.78714474       0.01002794       0.00389507
H        2.44202412       0.67113390       0.66197326
H        2.45385902      -0.65136977      -0.64189061
C        0.91606151      -0.90478549       0.90901405
