114
Properties=species:S:1:pos:R:3 pbc="F F F"
C        1.82341454       1.82341454      -1.82341454
C        3.18740565       1.94834195      -1.19184793
C        4.20365130       1.18485295      -1.64386887
C        5.56850228       1.17834919      -1.16240475
C        6.58348205       0.40490432      -1.60350985
C        7.93934736       0.51187051      -0.95231695
C        6.49643839      -0.63863456      -2.68774249
C        3.27648382       2.99166210      -0.10725324
H        1.32524181       2.79175408      -1.92644144
H        1.85151559       1.34337623      -2.80647330
H        3.97798553       0.48427945      -2.44461050
H        5.79212848       1.87425910      -0.35708460
H        8.42805697      -0.46182408      -0.85565039
H        7.90151288       0.97982049       0.03611451
H        5.52434086      -0.68485894      -3.18172401
H        6.69411776      -1.63014087      -2.26580837
H        7.23862167      -0.44615869      -3.46899172
H        2.89854628       3.95118295      -0.47774265
H        4.29182100       3.17369433       0.24922382
H        2.67421910       2.69761635       0.75808172
C        8.78816669       1.34756880      -1.76146102
C        9.49905288       2.04746611      -2.43911917
Br      10.64849572       3.17914088      -3.53483509
C       -1.82341454      -1.82341454      -1.82341454
C       -0.95529170      -2.81399198      -2.55831184
C       -0.85301983      -4.07887310      -2.10048019
C       -0.07598312      -5.15398292      -2.67929019
C        0.03926857      -6.41646107      -2.21470373
C        0.92929983      -7.39742847      -2.93540619
C       -0.60966892      -6.96583416      -0.97004324
C       -0.30544713      -2.26639458      -3.80355745
H       -2.37048376      -1.16683281      -2.50612076
H       -2.54421913      -2.30306489      -1.15408110
H       -1.39618107      -4.32088512      -1.18980929
H        0.47241482      -4.90971583      -3.58617118
H        1.47008236      -8.04892467      -2.24304097
H        1.65668646      -6.91011519      -3.59179012
H       -1.28275023      -6.26421495      -0.47424075
H        0.16002661      -7.24692035      -0.24289152
H       -1.19983425      -7.85755939      -1.20406106
H       -1.06225412      -1.81223116      -4.45298661
H        0.20734881      -3.02045762      -4.40318270
H        0.43027546      -1.49804745      -3.54598175
C        0.12093287      -8.23597048      -3.78215890
C       -0.55607446      -8.93824941      -4.49131430
Br      -1.65073805     -10.07377505      -5.63795859
C       -1.82341454       1.82341454       1.82341454
C       -1.60971583       3.26880608       1.44907362
C       -2.49920006       3.88770276       0.64547030
C       -2.45460601       5.26171006       0.19294016
C       -3.33579786       5.87894098      -0.62284261
C       -3.10548300       7.31588339      -1.01783157
C       -4.55090148       5.24895490      -1.25431006
C       -0.39492293       3.90069940       2.07977683
H       -1.55633527       1.62221721       2.86488484
H       -2.85247795       1.48875109       1.66013609
H       -3.33347169       3.29308418       0.28031962
H       -1.61652153       5.85408457       0.55286608
H       -3.37688628       7.50529090      -2.06029390
H       -2.07126468       7.63914673      -0.86519255
H       -4.73440956       4.22163327      -0.93483690
H       -4.43842303       5.23532969      -2.34396746
H       -5.45218862       5.82075101      -1.01148493
H       -0.41372766       3.74889534       3.16484889
H       -0.32157654       4.97742561       1.91728936
H        0.52066805       3.44784445       1.68657733
C       -3.92036296       8.16970712      -0.19287358
C       -4.60282492       8.88478450       0.49802875
Br      -5.70630819      10.04100414       1.61515936
C        1.82341454      -1.82341454       1.82341454
C        1.63105411      -1.42984694       3.26669448
C        0.81625567      -2.16187318       4.05424428
C        0.52223664      -1.93408530       5.45293427
C       -0.30397950      -2.65674813       6.23912759
C       -0.51605731      -2.24532684       7.67426529
C       -1.11605511      -3.85185346       5.80974797
C        2.44255049      -0.23477925       3.69806941
H        2.85797387      -1.69205434       1.49340911
H        1.52479213      -2.85643622       1.62013678
H        0.30875742      -3.00571294       3.59240512
H        1.02469575      -1.08612572       5.91265072
H       -1.55330221      -2.38201094       7.99317456
H       -0.22869388      -1.20716574       7.86674699
H       -0.92959546      -4.16866713       4.78213425
H       -2.18446644      -3.62353134       5.89072036
H       -0.90194843      -4.71385675       6.44954637
H        3.49762271      -0.38613122       3.44371796
H        2.40597209      -0.03916229       4.77115712
H        2.09400891       0.66935533       3.18910015
C        0.31302341      -3.05748935       8.52668374
C        1.00737852      -3.73767545       9.24058419
Br       2.13009200      -4.83747886      10.39490084
C       -0.00445707       0.01189536      -1.78238275
H       -0.66409135       0.67374010      -2.43557963
H        0.65740317      -0.63156657      -2.45157240
C       -0.90989263      -0.90692880      -0.91072765
C        0.90977584       0.90977584      -0.90977584
C       -0.00465871       1.77757030       0.00794375
H       -0.66225468       2.44313916      -0.64384735
H        0.64322798       2.43503045       0.67728295
C       -1.78241447       0.00034974      -0.00472694
H       -2.45427497      -0.65498947       0.64260836
H       -2.43311707       0.67328779      -0.65473579
C       -0.91132561       0.90220522       0.91563759
C       -0.01476271      -0.02253852       1.78660255
H       -0.67934791      -0.69751639       2.42135241
H        0.63392994       0.61504881       2.47327442
C        0.01484550      -1.77751727      -0.01636693
H        0.67870853      -2.42144646      -0.68295456
H       -0.62264859      -2.45592969       0.64226336
C        1.78714474       0.01002794       0.00389507
H        2.44202412       0.67113390       0.66197326
H        2.45385902      -0.65136977      -0.64189061
C        0.91606151      -0.90478549       0.90901405
