85
Properties=species:S:1:pos:R:3 pbc="F F F"
C        0.00000000       0.00000000       0.00000000
C        0.91351051       0.91351051      -0.91351051
C        2.27750162       1.03843792      -0.28194391
C        3.29374727       0.27494893      -0.73396485
C        4.65859826       0.26844517      -0.25250073
C        5.67357802      -0.50499970      -0.69360583
C        7.02944334      -0.39803352      -0.04241293
Br       8.17630200       0.73109702      -1.13566546
C        5.58653437      -1.54853859      -1.77783846
C        2.36657980       2.08175807       0.80265079
H        0.41533778       1.88185006      -1.01653741
H        0.94161157       0.43347221      -1.89656928
H        3.06808151      -0.42562458      -1.53470647
H        4.88222446       0.96435508       0.55281942
H        7.51815294      -1.37172810       0.05425363
H        6.99160886       0.06991646       0.94601854
H        4.61443683      -1.59476297      -2.27181999
H        5.78421374      -2.54004489      -1.35590435
H        6.32871765      -1.35606272      -2.55908770
H        1.98864226       3.04127893       0.43216137
H        3.38191697       2.26379031       1.15912784
H        1.76431508       1.78771233       1.66798574
C       -0.91351051      -0.91351051      -0.91351051
C       -0.54445219      -0.69403626      -2.35939501
C        0.25999532      -1.57898986      -2.98366651
C        0.70800586      -1.52859617      -4.35895384
C        1.52461169      -2.40522399      -4.98157185
C        1.91429202      -2.16909484      -6.41901993
Br       0.79950559      -3.26997365      -7.57259642
C        2.16193351      -3.62030426      -4.35746350
C       -1.18101486       0.52074179      -2.98541400
H       -1.95517731      -0.65038739      -0.70816055
H       -0.74590329      -1.94310568      -0.58264408
H        0.62968213      -2.41397746      -2.39286807
H        0.34353881      -0.68978624      -4.94751268
H        2.95700207      -2.43657618      -6.61259710
H        1.75734405      -1.13434712      -6.73850372
H        1.84631586      -3.80808703      -3.32972269
H        3.25126638      -3.50440174      -4.34693783
H        1.92015052      -4.52054094      -4.93135221
H       -2.26553310       0.49800173      -2.83022844
H       -1.02218904       0.59802104      -4.06241144
H       -0.78928300       1.43613820      -2.53089686
C       -0.91351051       0.91351051       0.91351051
C       -2.33112046       0.86618235       0.40058064
C       -3.23234644       0.06493279       1.00538182
C       -4.62631870      -0.09922180       0.65244724
C       -5.52629235      -0.91123956       1.24713136
C       -6.93584011      -0.97750104       0.71548368
Br      -8.08555590       0.14688315       1.81062543
C       -5.25443306      -1.84078417       2.40218536
C       -2.60500899       1.79530721      -0.75462911
H       -0.49874700       1.92537598       0.88960228
H       -0.81567376       0.52433323       1.93164606
H       -2.87780924      -0.53852697       1.83788114
H       -4.97878917       0.49936322      -0.18439227
H       -7.34019468      -1.99331190       0.74528843
H       -7.02336521      -0.59999691      -0.30786152
H       -4.24436117      -1.76057650       2.80770919
H       -5.39549621      -2.87961652       2.08419350
H       -5.94329405      -1.64054207       3.22899064
H       -2.28644603       2.81275041      -0.50143662
H       -3.65888766       1.85878371      -1.03109193
H       -2.05275931       1.47494324      -1.64366089
C        0.91351051      -0.91351051       0.91351051
C        0.06568998      -1.99231431       1.53987917
C        0.06361755      -3.23178977       1.00725373
C       -0.67976936      -4.38060357       1.47870994
C       -0.69454512      -5.61800767       0.93872161
C       -1.56397901      -6.68761495       1.55018681
Br      -0.47225909      -7.82350568       2.69181789
C        0.05374362      -6.05628664      -0.29419602
C       -0.68343090      -1.55589002       2.77322797
H        1.38221994      -0.26885773       1.66264758
H        1.69736251      -1.31215512       0.26213542
H        0.66983492      -3.38924503       0.11808346
H       -1.29112838      -4.22096861       2.36391989
H       -2.02618495      -7.32628126       0.79207490
H       -2.35412286      -6.28093630       2.18869334
H        0.71088059      -5.29039847      -0.70978521
H       -0.65648692      -6.33642959      -1.07986949
H        0.68144077      -6.92606679      -0.07576493
H        0.00808770      -1.09938038       3.49029173
H       -1.18349088      -2.37125345       3.29881687
H       -1.44763934      -0.81578441       2.51589659
