106
Properties=species:S:1:pos:R:3 pbc="F F F"
C        1.82341454       1.82341454      -1.82341454
C        3.18740565       1.94834195      -1.19184793
C        4.20365130       1.18485295      -1.64386887
C        5.56850228       1.17834919      -1.16240475
C        6.58348205       0.40490432      -1.60350985
C        7.93934736       0.51187051      -0.95231695
Br       9.08620603       1.64100104      -2.04556948
C        6.49643839      -0.63863456      -2.68774249
C        3.27648382       2.99166210      -0.10725324
H        1.32524181       2.79175408      -1.92644144
H        1.85151559       1.34337623      -2.80647330
H        3.97798553       0.48427945      -2.44461050
H        5.79212848       1.87425910      -0.35708460
H        8.42805697      -0.46182408      -0.85565039
H        7.90151288       0.97982049       0.03611451
H        5.52434086      -0.68485894      -3.18172401
H        6.69411776      -1.63014087      -2.26580837
H        7.23862167      -0.44615869      -3.46899172
H        2.89854628       3.95118295      -0.47774265
H        4.29182100       3.17369433       0.24922382
H        2.67421910       2.69761635       0.75808172
C       -1.82341454      -1.82341454      -1.82341454
C       -0.99213291      -2.94896449      -2.38649813
C       -1.04814838      -4.16956252      -1.81466222
C       -0.32846934      -5.35657547      -2.22421142
C       -0.37196228      -6.57526759      -1.64466636
C        0.48073670      -7.69182993      -2.19244160
Br      -0.61084621      -8.82932568      -3.33260467
C       -1.17345958      -6.94830384      -0.42378290
C       -0.18985192      -2.57782189      -3.60772534
H       -2.24629150      -1.18922476      -2.60792106
H       -2.64049557      -2.17496645      -1.18590311
H       -1.68741860      -4.27800141      -0.94145548
H        0.31588234      -5.24599282      -3.09336171
H        0.89702770      -8.31953420      -1.39937678
H        1.30395656      -7.33202816      -2.81714726
H       -1.81786415      -6.14842217      -0.05491961
H       -0.49842418      -7.22489868       0.39353759
H       -1.82227996      -7.80428160      -0.63489314
H       -0.84255601      -2.12337623      -4.36153964
H        0.29952879      -3.42573491      -4.09008539
H        0.58979684      -1.85446675      -3.34908382
C       -1.82341454       1.82341454       1.82341454
C       -1.44104937       3.26798595       1.61856021
C       -2.18396891       4.04494788       0.80345634
C       -1.96776156       5.44310899       0.49838568
C       -2.70138644       6.21870000      -0.32819022
C       -2.30124670       7.65511597      -0.55282785
Br      -3.39879437       8.80699138       0.56699080
C       -3.89901729       5.77566033      -1.12913130
C       -0.24347375       3.71301662       2.41890878
H       -1.68277054       1.50139702       2.85926977
H       -2.85702674       1.61108153       1.53325686
H       -3.02805827       3.57392193       0.30489528
H       -1.11957228       5.91200584       0.99189406
H       -2.44715668       7.96598328      -1.59125668
H       -1.26249797       7.85661131      -0.27389042
H       -4.20751670       4.74721711      -0.93352788
H       -3.67852159       5.85086941      -2.19960574
H       -4.76390355       6.41103536      -0.91348421
H       -0.38590706       3.46486841       3.47669642
H       -0.05545790       4.78713365       2.37369995
H        0.66173283       3.20783103       2.06765553
C        1.82341454      -1.82341454       1.82341454
C        1.64826417      -1.41466654       3.26466483
C        0.83412129      -2.13166936       4.06658248
C        0.55536260      -1.88814750       5.46574612
C       -0.27012271      -2.59569325       6.26632568
C       -0.46489921      -2.16898384       7.69945020
Br       0.65579831      -3.26602366       8.85095458
C       -1.09725926      -3.78706774       5.85573784
C        2.47483990      -0.22330571       3.67725354
H        2.85600918      -1.70483514       1.48259301
H        1.51331307      -2.85543424       1.63261781
H        0.31449499      -2.97496710       3.61741339
H        1.06996857      -1.04070276       5.91280086
H       -1.50033273      -2.29296459       8.02925142
H       -0.16610925      -1.13181988       7.87950822
H       -0.92339748      -4.11515090       4.82945251
H       -2.16269653      -3.54799263       5.94448917
H       -0.88518014      -4.64505915       6.50157569
H        3.52602831      -0.38690327       3.41454031
H        2.45014669      -0.01739189       4.74875293
H        2.12995611       0.67928980       3.16308742
C       -0.00445707       0.01189536      -1.78238275
H       -0.66409135       0.67374010      -2.43557963
H        0.65740317      -0.63156657      -2.45157240
C       -0.90989263      -0.90692880      -0.91072765
C        0.90977584       0.90977584      -0.90977584
C       -0.00465871       1.77757030       0.00794375
H       -0.66225468       2.44313916      -0.64384735
H        0.64322798       2.43503045       0.67728295
C       -1.78241447       0.00034974      -0.00472694
H       -2.45427497      -0.65498947       0.64260836
H       -2.43311707       0.67328779      -0.65473579
C       -0.91132561       0.90220522       0.91563759
C       -0.01476271      -0.02253852       1.78660255
H       -0.67934791      -0.69751639       2.42135241
H        0.63392994       0.61504881       2.47327442
C        0.01484550      -1.77751727      -0.01636693
H        0.67870853      -2.42144646      -0.68295456
H       -0.62264859      -2.45592969       0.64226336
C        1.78714474       0.01002794       0.00389507
H        2.44202412       0.67113390       0.66197326
H        2.45385902      -0.65136977      -0.64189061
C        0.91606151      -0.90478549       0.90901405
