109
Properties=species:S:1:pos:R:3 pbc="F F F"
C        0.00000000       0.00000000       0.00000000
C        0.91309064       0.91309064      -0.91309064
C        0.97526136       2.29941343      -0.33246868
C        0.26508398       3.30009175      -0.88919705
C        0.28574013       4.64323547      -0.42565036
C        0.30333195       5.78052415      -0.03884934
C        0.34091165       7.22582790       0.46467566
C        0.38424218       8.34501667       0.86719422
C        0.43543442       9.66717147       1.34271523
C        0.46854869      10.75964403       0.55510139
C        0.56041195      12.13050198       1.16722598
C        0.47363460      10.72755404      -0.95217967
C        1.91003642       2.46697437       0.83939135
H        0.46361848       0.89026553      -1.91042186
H        1.90071606       0.44658928      -0.96710748
H       -0.37876230       3.10037325      -1.74257469
H        0.44476055       9.78470606       2.42416487
H        1.21422536      12.79447228       0.59491521
H        0.90945310      12.10911067       2.20406279
H        0.41847917       9.71586856      -1.36345713
H        1.39342467      11.18430964      -1.33288149
H       -0.37863717      11.28561580      -1.35249388
H        2.91432065       2.12160600       0.57141333
H        1.56245712       1.88308489       1.69737652
H        2.00596717       3.50459768       1.17110909
C       -0.75036508      12.72605364       1.19518657
C       -1.84814085      13.22482815       1.21860356
Br      -3.62315141      14.03130436       1.25646685
C       -0.91309064      -0.91309064      -0.91309064
C       -0.06096673      -1.60342606      -1.94275068
C       -0.05995303      -1.17434877      -3.22007097
C        0.69032255      -1.78247127      -4.26247724
C        1.32043418      -2.29604027      -5.14709934
C        2.12663299      -2.96544848      -6.26324840
C        2.75728332      -3.49982808      -7.11951988
C        3.50230621      -4.13112261      -8.13107427
C        3.05708839      -4.34587290      -9.38430681
C        3.92325491      -5.06550175     -10.38144110
C        1.68862490      -3.95792812      -9.88406508
C        0.70897670      -2.80128853      -1.44530761
H       -1.65975218      -0.24768108      -1.35687260
H       -1.42702729      -1.62558039      -0.26180515
H       -0.65326453      -0.30795823      -3.50296288
H        4.50349950      -4.45439205      -7.85440919
H        3.34547137      -5.74350134     -11.01575244
H        4.72965221      -5.63483542      -9.90931777
H        1.08142907      -3.44847369      -9.13076024
H        1.13761340      -4.85126761     -10.19696160
H        1.76862691      -3.28471317     -10.74338625
H        0.02697187      -3.51726589      -0.97421930
H        1.45682905      -2.49972136      -0.70527318
H        1.23668671      -3.33649137      -2.23965110
C        4.55996964      -4.10052981     -11.23994182
C        5.09321823      -3.29236580     -11.95893618
Br       5.95543610      -1.98563296     -13.12148924
C       -0.91309064       0.91309064       0.91309064
C       -2.25880203       1.08512897       0.26321248
C       -2.56983105       2.24068645      -0.35614473
C       -3.82448165       2.50074646      -0.97060215
C       -4.88515704       2.72560317      -1.48805478
C       -6.24406982       2.99689970      -2.13890564
C       -7.30704883       3.19229669      -2.63728088
C       -8.56280354       3.42312364      -3.22603652
C       -9.23735005       4.58686938      -3.15112810
C      -10.59423156       4.71654365      -3.78708726
C       -8.75552867       5.80863102      -2.41079138
C       -3.20301317      -0.08119779       0.41580405
H       -0.37473560       1.85830149       1.03126877
H       -0.98925171       0.43263043       1.89253068
H       -1.83615126       3.04138628      -0.41335190
H       -8.99243002       2.58813552      -3.77526380
H      -11.28115230       5.30826835      -3.17563823
H      -11.05984741       3.74806552      -3.99341195
H       -7.77254248       5.67583428      -1.95057190
H       -9.45854024       6.06221527      -1.61013971
H       -8.68182680       6.66549379      -3.08784808
H       -3.32175729      -0.33249501       1.47525103
H       -2.81627723      -0.96214418      -0.10596757
H       -4.20279800       0.11709888       0.01955888
C      -10.46047857       5.37878266      -5.05875924
C      -10.34846044       5.93340783      -6.12378453
Br     -10.16733660       6.83018983      -7.84584033
C        0.91309064      -0.91309064       0.91309064
C        0.55494099      -0.69452359       2.35767889
C        1.35334326       0.04820605       3.14923557
C        1.10854618       0.28309705       4.52917683
C        0.90683024       0.48099109       5.69686628
C        0.63671431       0.71947370       7.18482328
C        0.41328449       0.89221064       8.34099078
C        0.14932976       1.09627083       9.70683174
C        1.08724148       1.08803003      10.67387988
C        0.69181597       1.28041458      12.11228655
C        2.55589015       0.84143041      10.43890856
C       -0.69172244      -1.40170767       2.82763420
H        1.94601236      -0.63351970       0.68477380
H        0.75857431      -1.95092378       0.60491474
H        2.24396293       0.51658433       2.73680703
H       -0.89128350       1.27332531       9.96991055
H        1.26750413       0.64080841      12.78708669
H       -0.37309163       1.09930639      12.28689900
H        2.80641413       0.69345860       9.38484933
H        2.87546568      -0.05628329      10.97886682
H        3.15088310       1.68775885      10.79634825
H       -0.62013690      -2.47309226       2.61155796
H       -1.57576927      -1.00582409       2.31811068
H       -0.86586873      -1.30262848       3.90269600
C        0.93595309       2.64774471      12.49229361
C        1.14041793       3.79288370      12.81054952
Br       1.47102027       5.64447660      13.32514242
