65
Properties=species:S:1:pos:R:3 pbc="F F F"
C        0.00000000       0.00000000       0.00000000
C        0.88175903       0.88175903      -0.88175903
C        0.57413733       2.23411514      -1.03133364
C        1.38489077       3.03732684      -1.83343535
C        2.49287594       2.50308354      -2.48830495
C        2.77990847       1.14307123      -2.33610679
C        1.98469615       0.32582496      -1.52694464
S        4.20059190       0.45739219      -3.14485380
O        5.14620266       1.52966632      -3.37517048
O        4.57358159      -0.75665177      -2.44736281
F        3.70823373      -0.00260078      -4.57999717
H       -0.28784406       2.65963787      -0.52321998
H        3.12576355       3.13859301      -3.10508869
H        2.22244408      -0.72855660      -1.39807956
C        1.07399304       4.43506987      -1.98593794
C        0.81361620       5.60567965      -2.11365886
Br       0.39260887       7.49845667      -2.32017278
C       -0.88175903      -0.88175903      -0.88175903
C       -0.47139986      -2.17906588      -1.18912037
C       -1.28197933      -2.98311107      -1.99056256
C       -2.49152473      -2.50340009      -2.48933962
C       -2.88189801      -1.19673007      -2.18045840
C       -2.08728132      -0.38091382      -1.36927061
S       -4.42984738      -0.58372487      -2.78926563
O       -5.29450913      -1.71836392      -3.03816641
O       -4.83933366       0.52148788      -1.94644685
F       -4.12246436       0.04758260      -4.21074835
H        0.47033847      -2.56195730      -0.80339496
H       -3.12261027      -3.14031562      -3.10651936
H       -2.40395451       0.62966514      -1.11767768
C       -0.86463076      -4.32482983      -2.30554026
C       -0.51510134      -5.44851929      -2.56933409
Br       0.05005818      -7.26543010      -2.99586639
C       -0.88175903       0.88175903       0.88175903
C       -2.13366395       0.41882623       1.28709593
C       -2.93394114       1.22504250       2.09666932
C       -2.49865830       2.48603392       2.49957222
C       -1.24574334       2.93865342       2.07468971
C       -0.42576564       2.13921794       1.27248218
S       -0.67112902       4.53105790       2.60065097
O       -1.34882558       4.86659845       3.83561542
O        0.77354714       4.54745907       2.49038071
F       -1.19870769       5.56561889       1.52130354
H       -2.48089318      -0.56420750       0.97832811
H       -3.12533094       3.10525860       3.13885571
H        0.55595898       2.48930331       0.95862272
C       -4.22457530       0.74854001       2.52188553
C       -5.30548142       0.34946918       2.87800411
Br      -7.05321519      -0.29579460       3.45381773
C        0.88175903      -0.88175903       0.88175903
C        2.21042959      -0.52176539       1.10739113
C        3.01114259      -1.32699385       1.91751652
C        2.50001133      -2.48608288       2.49817023
C        1.16920996      -2.83770473       2.25217179
C        0.34915380      -2.03627936       1.45203259
S        0.50098128      -4.29697324       3.00488336
O        1.27405863      -4.58101965       4.19596117
O       -0.94150300      -4.16485064       3.04094500
F        0.80110078      -5.48532606       1.99920328
H        2.61728781       0.38148575       0.65921173
H        3.12881316      -3.10413899       3.13649310
H       -0.69104477      -2.30538779       1.27762403
C        4.38165189      -0.95587871       2.15747025
C        5.52945344      -0.64506978       2.35843150
Br       7.38535146      -0.14251802       2.68336884
