109
Properties=species:S:1:pos:R:3 pbc="F F F"
C        0.00000000       0.00000000       0.00000000
C        0.91729447       0.91729447      -0.91729447
C        1.01504983       2.30467794      -0.30599883
C        1.85665561       3.24177244      -1.16712381
N        3.23622816       2.84290752      -1.22866160
C        3.83829348       2.40570193      -2.37972931
O        3.21697680       2.26607711      -3.43091540
C        5.30100889       2.09309071      -2.31133303
C        5.93522847       1.73103159      -3.51192985
C        7.29276601       1.40337440      -3.53537742
C        8.03496991       1.43100859      -2.35754841
C        7.42498340       1.79347737      -1.15669417
C        6.06603474       2.12645784      -1.13315243
O        5.50127536       2.48263812       0.06574752
H        0.45062624       0.93259957      -1.90563081
H        1.88601267       0.41385729      -0.97230727
H        1.43817734       2.23373439       0.70543429
H        0.00560410       2.72113207      -0.18729725
H        1.42686742       3.35910406      -2.16645159
H        3.81495367       2.95583689      -0.40192966
H        5.36896775       1.70306814      -4.44178979
H        7.76631656       1.12420554      -4.47338082
H        9.09048678       1.16985401      -2.37626506
H        8.02545784       1.80777973      -0.25127651
H        6.19064405       2.46469519       0.75376733
C        1.83241908       4.55292621      -0.57223862
C        1.81212098       5.65101749      -0.07402227
Br       1.77930068       7.42653821       0.73155143
C       -0.91729447      -0.91729447      -0.91729447
C       -1.93920448      -0.05180373      -1.63471840
C       -2.87398142      -0.88730134      -2.50426910
N       -2.19034917      -1.51633781      -3.60111029
C       -2.03997151      -2.87437016      -3.70938306
O       -2.42943825      -3.64753330      -2.83699776
C       -1.36909350      -3.39283344      -4.94350571
C       -1.29576893      -4.78804515      -5.09437584
C       -0.66901702      -5.35728519      -6.20521562
C       -0.10452414      -4.53887213      -7.18013065
C       -0.17209563      -3.15165089      -7.05140842
C       -0.80398687      -2.58051493      -5.94114321
O       -0.85527108      -1.21216795      -5.85072693
H       -1.38694004      -1.64809125      -0.25382533
H       -0.23905933      -1.42531312      -1.60780477
H       -1.42208748       0.70100867      -2.24539863
H       -2.52693904       0.50621329      -0.89330766
H       -3.43060282      -1.61531037      -1.90650988
H       -1.86443192      -0.93843410      -4.36985420
H       -1.73094935      -5.44245180      -4.34042452
H       -0.62054895      -6.43887341      -6.30448057
H        0.38841248      -4.98350157      -8.04151676
H        0.27557886      -2.53453381      -7.82555913
H       -0.43094812      -0.83047669      -6.64014710
C       -3.86288724      -0.01374437      -3.08095230
C       -4.69109585       0.71785959      -3.56392448
Br      -6.03023914       1.90080133      -4.34484965
C       -0.91729447       0.91729447       0.91729447
C       -1.25557776       0.17259638       2.19755247
C       -2.16804063       0.99442235       3.10308889
N       -1.52487720       2.17781713       3.60510295
C       -1.91660977       3.44554035       3.26157461
O       -2.81211686       3.65546026       2.44639220
C       -1.20148360       4.58502627       3.91892276
C       -1.66359731       5.88107707       3.63351555
C       -1.04172453       7.00235220       4.18744110
C        0.05296116       6.84330541       5.03318268
C        0.52297183       5.56481726       5.33330951
C       -0.10244313       4.44070074       4.78250114
O        0.38468436       3.19874432       5.10410600
H       -1.80741434       1.15312419       0.32831810
H       -0.34225306       1.82851269       1.10141148
H       -0.32981993      -0.09071318       2.72737069
H       -1.74561981      -0.77775643       1.94617003
H       -3.11450481       1.23044816       2.60747010
H       -0.79287795       2.07804401       4.30179827
H       -2.51772407       6.02315666       2.97294494
H       -1.41215596       7.99754789       3.95419908
H        0.53990561       7.71750742       5.45900405
H        1.37839930       5.46687708       5.99603630
H        1.12821785       3.30544579       5.72434397
C       -2.51334225       0.19458259       4.24965906
C       -2.80253236      -0.47528320       5.20991158
Br      -3.27012830      -1.55839953       6.76255869
C        0.91729447      -0.91729447       0.91729447
C        1.35173146      -2.14268067       0.13131448
C        2.20741763      -3.08061771       0.97751653
N        3.46852958      -2.49592350       1.34334420
C        3.80264789      -2.18527376       2.63580308
O        3.01525416      -2.33046832       3.56824683
C        5.17955407      -1.64876682       2.87711175
C        5.55087265      -1.41517344       4.21214383
C        6.80898840      -0.89625045       4.52627898
C        7.71304607      -0.60137394       3.50910691
C        7.36540321      -0.83166943       2.17808230
C        6.10687835      -1.35596448       1.86280218
O        5.80179847      -1.57368067       0.54268682
H        0.31736224      -1.17864256       1.79285183
H        1.76124003      -0.29164158       1.21929561
H        1.90288700      -1.82967227      -0.76608183
H        0.46227217      -2.67853496      -0.22677371
H        1.65987739      -3.43757884       1.85496683
H        4.17593911      -2.37119486       0.62558626
H        4.85519402      -1.63902657       5.01960509
H        7.07840530      -0.72065414       5.56484348
H        8.69004741      -0.19176887       3.75478957
H        8.08823389      -0.59373542       1.40254477
H        6.57257336      -1.32975190      -0.00075336
C        2.50717149      -4.25318051       0.19723190
C        2.75821534      -5.23520186      -0.45625647
Br       3.16413202      -6.82304733      -1.51289189
