130
Properties=species:S:1:pos:R:3 pbc="F F F"
C        1.82719850       1.82719850      -1.82719850
C        1.92495386       3.21458197      -1.21590286
C        2.76655963       4.15167647      -2.07702783
N        4.14613218       3.75281155      -2.13856562
C        4.74819750       3.31560595      -3.28963334
O        4.12688083       3.17598114      -4.34081942
C        6.21091291       3.00299474      -3.22123706
C        6.84513249       2.64093562      -4.42183388
C        8.20267003       2.31327842      -4.44528145
C        8.94487394       2.34091262      -3.26745244
C        8.33488743       2.70338140      -2.06659819
C        6.97593876       3.03636187      -2.04305646
O        6.41117938       3.39254214      -0.84415650
H        1.36053027       1.84250360      -2.81553483
H        2.79591669       1.32376132      -1.88221129
H        2.34808137       3.14363842      -0.20446973
H        0.91550812       3.63103609      -1.09720128
H        2.33677144       4.26900808      -3.07635561
H        4.72485770       3.86574091      -1.31183369
H        6.27887177       2.61297216      -5.35169382
H        8.67622059       2.03410957      -5.38328484
H       10.00039081       2.07975803      -3.28616908
H        8.93536187       2.71768375      -1.16118053
H        7.10054807       3.37459922      -0.15613669
C        2.74232310       5.46283023      -1.48214264
C        2.72202501       6.56092151      -0.98392629
Br       2.68920470       8.33644224      -0.17835259
C       -1.82719850      -1.82719850      -1.82719850
C       -1.86881427      -1.25335305      -3.23327136
C       -2.76802263      -2.07605188      -4.15118942
N       -2.25625872      -3.39928257      -4.38196807
C       -2.88435680      -4.53298408      -3.93609592
O       -3.90340399      -4.48989873      -3.25037866
C       -2.27434674      -5.84728360      -4.31351436
C       -2.96789702      -7.00830147      -3.93170350
C       -2.46023332      -8.27600737      -4.22498921
C       -1.25014863      -8.40053187      -4.90255850
C       -0.54963485      -7.26006751      -5.29516465
C       -1.05989873      -5.98959154      -5.00586681
O       -0.34545821      -4.89054248      -5.41187734
H       -2.81450293      -1.84560324      -1.35846253
H       -1.38237852      -2.82516941      -1.79434137
H       -0.85032323      -1.20361020      -3.64225608
H       -2.23342172      -0.21803341      -3.19229035
H       -3.79788614      -2.10165963      -3.78258936
H       -1.43042281      -3.50952045      -4.96248904
H       -3.91497107      -6.92862991      -3.39993677
H       -3.00994195      -9.16320643      -3.92046661
H       -0.85310868      -9.38823561      -5.12497364
H        0.39209275      -7.38343845      -5.82288046
H        0.44902067      -5.19238353      -5.88792112
C       -2.82591480      -1.42637940      -5.43500178
C       -2.87439949      -0.88227870      -6.51019462
Br      -2.95279514      -0.00251388      -8.24869052
C       -1.82719850       1.82719850       1.82719850
C       -2.86356028       0.96465197       2.52722643
C       -3.79864317       1.80075453       3.39586624
N       -3.11943984       2.41339579       4.50467373
C       -2.95765359       3.76893513       4.62684807
O       -3.33196345       4.55360690       3.75811103
C       -2.29348190       4.26987468       5.87178812
C       -2.20879540       5.66291190       6.03619469
C       -1.58714372       6.21615878       7.15792740
C       -1.03918276       5.38368759       8.13036864
C       -1.11824803       3.99838450       7.98823449
C       -1.74506126       3.44328404       6.86701179
O       -1.80802158       2.07635292       6.76350353
H       -2.28399631       2.56833680       1.16623559
H       -1.15074800       2.32259832       2.52854298
H       -2.35900914       0.20154453       3.13563585
H       -3.44950529       0.41888818       1.77535202
H       -4.34304150       2.53930716       2.79978648
H       -2.80593158       1.82550148       5.27099924
H       -2.63099445       6.32817595       5.28436734
H       -1.52970370       7.29630041       7.26761089
H       -0.55017218       5.81585111       9.00029463
H       -0.68340137       3.37010680       8.76071799
H       -1.39451218       1.68355706       7.55321474
C       -4.80077822       0.93112503       3.95539273
C       -5.64006632       0.20281033       4.42399617
Br      -6.99712419      -0.97481295       5.18168830
C        1.82719850      -1.82719850       1.82719850
C        2.84651645      -2.54770786       0.96121436
C        3.73340076      -3.47426754       1.78759564
N        4.57393851      -2.75681402       2.70675682
C        4.44048555      -2.84494047       4.06801077
O        3.54583038      -3.50110881       4.59674220
C        5.43376504      -2.09813437       4.90324529
C        5.35011515      -2.26129525       6.29649159
C        6.22402489      -1.58582347       7.15138154
C        7.19287133      -0.73552909       6.62483857
C        7.29571213      -0.56482406       5.24433082
C        6.42360358      -1.24484398       4.38690953
O        6.55768105      -1.05587479       3.03432219
H        1.15667401      -2.52093000       2.34096469
H        2.29318559      -1.15568464       2.55301907
H        3.46045871      -1.81203249       0.42369832
H        2.32217374      -3.13005756       0.19151420
H        3.14314449      -4.24169335       2.29729729
H        5.34945142      -2.21447129       2.33850959
H        4.59726941      -2.92151006       6.72475827
H        6.14355608      -1.72318048       8.22687844
H        7.86875332      -0.20561277       7.29195184
H        8.06006574       0.10376204       4.85792246
H        7.30463174      -0.45107017       2.87558207
C        4.61129045      -4.18309870       0.89290683
C        5.34652307      -4.77674480       0.14360494
Br       6.53533203      -5.73662032      -1.06795282
C       -0.00445707       0.01189536      -1.78238275
H       -0.66409135       0.67374010      -2.43557963
H        0.65740317      -0.63156657      -2.45157240
C       -0.90989263      -0.90692880      -0.91072765
C        0.90977584       0.90977584      -0.90977584
C       -0.00465871       1.77757030       0.00794375
H       -0.66225468       2.44313916      -0.64384735
H        0.64322798       2.43503045       0.67728295
C       -1.78241447       0.00034974      -0.00472694
H       -2.45427497      -0.65498947       0.64260836
H       -2.43311707       0.67328779      -0.65473579
C       -0.91132561       0.90220522       0.91563759
C       -0.01476271      -0.02253852       1.78660255
H       -0.67934791      -0.69751639       2.42135241
H        0.63392994       0.61504881       2.47327442
C        0.01484550      -1.77751727      -0.01636693
H        0.67870853      -2.42144646      -0.68295456
H       -0.62264859      -2.45592969       0.64226336
C        1.78714474       0.01002794       0.00389507
H        2.44202412       0.67113390       0.66197326
H        2.45385902      -0.65136977      -0.64189061
C        0.91606151      -0.90478549       0.90901405
