101
Properties=species:S:1:pos:R:3 pbc="F F F"
C        0.00000000       0.00000000       0.00000000
C        0.91729447       0.91729447      -0.91729447
C        1.01504983       2.30467794      -0.30599883
C        1.85665561       3.24177244      -1.16712381
Br       1.82367636       5.02589169      -0.35764887
N        3.23622816       2.84290752      -1.22866160
C        3.83829348       2.40570193      -2.37972931
O        3.21697680       2.26607711      -3.43091540
C        5.30100889       2.09309071      -2.31133303
C        5.93522847       1.73103159      -3.51192985
C        7.29276601       1.40337440      -3.53537742
C        8.03496991       1.43100859      -2.35754841
C        7.42498340       1.79347737      -1.15669417
C        6.06603474       2.12645784      -1.13315243
O        5.50127536       2.48263812       0.06574752
H        0.45062624       0.93259957      -1.90563081
H        1.88601267       0.41385729      -0.97230727
H        1.43817734       2.23373439       0.70543429
H        0.00560410       2.72113207      -0.18729725
H        1.42686742       3.35910406      -2.16645159
H        3.81495367       2.95583689      -0.40192966
H        5.36896775       1.70306814      -4.44178979
H        7.76631656       1.12420554      -4.47338082
H        9.09048678       1.16985401      -2.37626506
H        8.02545784       1.80777973      -0.25127651
H        6.19064405       2.46469519       0.75376733
C       -0.91729447      -0.91729447      -0.91729447
C       -1.67793474      -0.04570137      -1.90209050
C       -2.60575963      -0.87297037      -2.78682186
Br      -3.62155573       0.34833106      -3.93399224
N       -1.88735489      -1.75832864      -3.66211375
C       -1.94367177      -3.12369742      -3.55635554
O       -2.56893206      -3.68538552      -2.65965173
C       -1.20101871      -3.92129131      -4.58312262
C       -1.33273625      -5.31920746      -4.52624621
C       -0.65838061      -6.14052602      -5.43261120
C        0.15935489      -5.57524418      -6.40763763
C        0.29846740      -4.18949010      -6.48413224
C       -0.38052701      -3.36570173      -5.57941626
O       -0.22324347      -2.00679674      -5.68812575
H       -1.58527576      -1.46008379      -0.24349707
H       -0.24079191      -1.61834217      -1.41304314
H       -0.96730637       0.52053565      -2.51970672
H       -2.26498022       0.69990031      -1.34895351
H       -3.34922722      -1.41159147      -2.19160437
H       -1.36988124      -1.36204528      -4.44079371
H       -1.96724581      -5.77755650      -3.76902336
H       -0.77111560      -7.22021220      -5.37257513
H        0.68853057      -6.21622790      -7.10890852
H        0.94198295      -3.77255458      -7.25394245
H        0.36172671      -1.81917628      -6.44412234
C       -0.91729447       0.91729447       0.91729447
C       -1.19076880       0.20430030       2.23065751
C       -2.10050560       1.02599399       3.13905228
Br      -2.48545459      -0.02535972       4.74712206
N       -1.48064536       2.24471693       3.58243498
C       -1.92396082       3.48766221       3.21210170
O       -2.85101443       3.64271858       2.42023630
C       -1.22589875       4.66983041       3.80970348
C       -1.73861508       5.94074805       3.49882679
C       -1.13637299       7.09843124       3.99671360
C       -0.01103558       7.00145432       4.81103702
C        0.50946224       5.74880789       5.13580929
C       -0.09612806       4.58827603       4.64124092
O        0.44095815       3.37336005       4.98576406
H       -1.83269193       1.10575101       0.35041369
H       -0.36664647       1.85165066       1.05388009
H       -0.24073826      -0.01240838       2.73814756
H       -1.65734929      -0.76866138       2.02534550
H       -3.06925926       1.21590628       2.66725753
H       -0.72423740       2.19070248       4.25778036
H       -2.61726338       6.03435718       2.86220511
H       -1.54608776       8.07338003       3.74443514
H        0.46041145       7.90391158       5.19310572
H        1.38804406       5.69940398       5.77315416
H        1.19977687       3.52348843       5.57786035
C        0.91729447      -0.91729447       0.91729447
C        1.87024811      -1.71344898       0.04202952
C        2.75303891      -2.64235459       0.87015836
Br       3.85663224      -3.70340406      -0.35281939
N        3.65894390      -1.92434978       1.72450360
C        3.57871673      -1.95252858       3.09247941
O        2.68134138      -2.54938865       3.68323928
C        4.63479576      -1.21490686       3.85573001
C        4.60262643      -1.31878822       5.25677527
C        5.53750621      -0.64664301       6.04736861
C        6.51677874       0.14102821       5.44777639
C        6.56893676       0.25215219       4.05837037
C        5.63556879      -0.42470929       3.26536693
O        5.72079896      -0.29553539       1.90183161
H        0.24155962      -1.56155756       1.48573944
H        1.43941128      -0.23730907       1.59545687
H        2.49018037      -1.02590904      -0.54961197
H        1.29160476      -2.30374426      -0.68131560
H        2.15433295      -3.36368446       1.43440565
H        4.43950039      -1.42978297       1.30343687
H        3.84249298      -1.92958039       5.74175230
H        5.49634874      -0.73756112       7.12999306
H        7.24036085       0.66859613       6.06484114
H        7.34263059       0.87249251       3.61437600
H        6.48402880       0.27092678       1.68846989
