41
Properties=species:S:1:pos:R:3 pbc="F F F"
C        0.00000000       0.00000000       0.00000000
C        0.86781727       0.86781727      -0.86781727
O        0.66901359       2.20282279      -1.05746946
C        1.64992091       2.63129810      -1.89845432
C        2.45941382       1.57910036      -2.23643421
C        1.96627473       0.43637736      -1.57877862
H        1.62861584       3.68223253      -2.14871427
H        2.35321871      -0.57192402      -1.61234542
C        3.61071750       1.59886477      -3.10113601
C        4.57493433       1.61541747      -3.82532377
Br       6.13399139       1.64218178      -4.99627413
C       -0.86781727      -0.86781727      -0.86781727
O       -0.64349144      -2.19330693      -1.09250748
C       -1.63359079      -2.62520984      -1.92087270
C       -2.47406131      -1.58456255      -2.21632452
C       -1.99173108      -0.44586965      -1.54382998
H       -1.59444412      -3.66949186      -2.19562666
H       -2.40189121       0.55377520      -1.54552410
C       -3.64419289      -1.61134770      -3.05517770
C       -4.62417809      -1.63378026      -3.75771723
Br      -6.20873127      -1.67005181      -4.89366423
C       -0.86781727       0.86781727       0.86781727
O       -2.08878475       0.49513208       1.34538901
C       -2.55832672       1.53865651       2.08269009
C       -1.64453592       2.55918784       2.07122462
C       -0.55010845       2.13968819       1.29163407
H       -3.52954442       1.39580195       2.53421627
H        0.35446449       2.68479394       1.06331066
C       -1.74841637       3.83874892       2.72355299
C       -1.83541625       4.91038132       3.26987800
Br      -1.97608769       6.64312028       4.15323934
C        0.86781727      -0.86781727       0.86781727
O        2.15785294      -0.57516479       1.19628812
C        2.60251993      -1.58986296       1.98729044
C        1.60489809      -2.51325180       2.15679849
C        0.48121969      -2.05985738       1.44035364
H        3.62202033      -1.50295735       2.33458496
H       -0.48618033      -2.53215953       1.34766092
C        1.65782749      -3.73376839       2.91912240
C        1.70215587      -4.75595103       3.55756867
Br       1.77383110      -6.40873391       4.58988230
