90
Properties=species:S:1:pos:R:3 pbc="F F F"
C        1.77880322       1.77880322      -1.77880322
C        1.78015071       3.14303233      -1.86235341
O        2.71382143       3.54476173      -2.76377506
C        3.32398608       2.42067890      -3.26936444
C        2.75848534       1.30356458      -2.67068712
C        4.36600284       2.49182194      -4.25270532
O        4.82300087       3.68898325      -4.75145388
C        5.80087381       3.41827988      -5.65466071
C        5.98105831       2.06655048      -5.74584857
C        5.07259061       1.46190687      -4.85714364
H        1.21965301       3.93322010      -1.38334383
H        3.02810078       0.27473519      -2.86189182
H        6.25290883       4.27777988      -6.12911019
H        4.94047672       0.40565170      -4.67198610
C        6.91404788       1.35618262      -6.58161645
C        7.69542665       0.76124953      -7.28157205
Br       8.95885003      -0.20070695      -8.41334106
C       -1.77880322      -1.77880322      -1.77880322
C       -1.71566977      -3.13520501      -1.93466166
O       -2.67449903      -3.53999780      -2.80786139
C       -3.36671618      -2.42587377      -3.22143948
C       -2.82731850      -1.31192272      -2.59349580
C       -4.45466088      -2.50259867      -4.15327055
O       -4.87648620      -3.69565521      -4.69129658
C       -5.91346622      -3.43209023      -5.52825795
C       -6.16630996      -2.08898710      -5.53816030
C       -5.24354417      -1.48252593      -4.66557102
H       -1.09126928      -3.91763445      -1.52731322
H       -3.15836121      -0.29055535      -2.71581123
H       -6.34610812      -4.28935930      -6.02433148
H       -5.15529694      -0.43144207      -4.43137550
C       -7.17715141      -1.38796149      -6.28673405
C       -8.02373113      -0.80085254      -6.91366457
Br      -9.39257893       0.14845297      -7.92735819
C       -1.77880322       1.77880322       1.77880322
C       -2.96870716       1.45090296       2.36592633
O       -3.43840303       2.51294185       3.07101334
C       -2.53615835       3.54209198       2.93577910
C       -1.48964265       3.10993078       2.13316360
C       -2.73143264       4.81855530       3.56054217
O       -3.83262588       5.09429854       4.33651358
C       -3.72191434       6.37434786       4.77755220
C       -2.56765282       6.92748973       4.29831481
C       -1.92479051       5.94683842       3.52001218
H       -3.58613918       0.56412166       2.38595611
H       -0.62685405       3.69314729       1.84472645
H       -4.52832843       6.72611959       5.40535087
H       -0.98794801       6.04025911       2.98990740
C       -2.06833484       8.25908899       4.52442312
C       -1.65015604       9.37430337       4.71378883
Br      -0.97399628      11.17751071       5.01997716
C        1.77880322      -1.77880322       1.77880322
C        3.13026850      -1.69184698       1.96342096
O        3.53695631      -2.65982132       2.82558059
C        2.42911903      -3.38237724       3.20253316
C        1.31718411      -2.85270910       2.56284382
C        2.50933796      -4.48718360       4.11400854
O        3.69915678      -4.89338419       4.67089703
C        3.44023790      -5.95278551       5.48079099
C        2.10333819      -6.23556599       5.45455318
C        1.49605322      -5.30882469       4.58676320
H        3.90780966      -1.04385643       1.58455086
H        0.30050165      -3.20636042       2.65786572
H        4.29561496      -6.37629691       5.98788703
H        0.44883568      -5.23923562       4.33004322
C        1.40863033      -7.27689585       6.16632078
C        0.82681249      -8.14900960       6.76242614
Br      -0.11393774      -9.55914378       7.72627810
C       -0.00445707       0.01189536      -1.78238275
H       -0.66409135       0.67374010      -2.43557963
H        0.65740317      -0.63156657      -2.45157240
C       -0.90989263      -0.90692880      -0.91072765
C        0.90977584       0.90977584      -0.90977584
C       -0.00465871       1.77757030       0.00794375
H       -0.66225468       2.44313916      -0.64384735
H        0.64322798       2.43503045       0.67728295
C       -1.78241447       0.00034974      -0.00472694
H       -2.45427497      -0.65498947       0.64260836
H       -2.43311707       0.67328779      -0.65473579
C       -0.91132561       0.90220522       0.91563759
C       -0.01476271      -0.02253852       1.78660255
H       -0.67934791      -0.69751639       2.42135241
H        0.63392994       0.61504881       2.47327442
C        0.01484550      -1.77751727      -0.01636693
H        0.67870853      -2.42144646      -0.68295456
H       -0.62264859      -2.45592969       0.64226336
C        1.78714474       0.01002794       0.00389507
H        2.44202412       0.67113390       0.66197326
H        2.45385902      -0.65136977      -0.64189061
C        0.91606151      -0.90478549       0.90901405
