166
Properties=species:S:1:pos:R:3 pbc="F F F"
C        1.87799349       7.69126199      -2.74983206
C        1.81362768       6.42393406      -1.91959245
O        1.39306532       5.33482043      -2.75804106
C        2.34420562       4.42799647      -3.11959458
O        3.50224674       4.45672496      -2.72304581
C        1.75176144       3.30024569      -3.97457153
C        1.00109012       2.33917327      -3.00876281
C        1.82868574       1.82868574      -1.82868574
C        0.77911776       3.89700185      -5.04410092
C       -0.08782055       2.93057296      -5.84620747
C        2.89367511       2.57101759      -4.67948412
O        3.08469371       1.36336498      -4.62705074
O        3.67153534       3.45093926      -5.37766182
C        4.90125867       2.94218649      -5.91632379
C        4.75189488       2.68767075      -7.40136367
H        2.17097280       8.54583098      -2.13295745
H        0.90430950       7.90356257      -3.20369577
H        2.59596631       7.58372509      -3.56900754
H        1.06233172       6.53342788      -1.13088346
H        2.77409638       6.23420654      -1.42962736
H        0.63354964       1.46700799      -3.56232656
H        0.11085337       2.85333607      -2.61907803
H        2.17951408       2.63013391      -1.17475098
H        2.67072947       1.20400137      -2.13271922
H        1.33529533       4.55354347      -5.72619588
H        0.06628051       4.55616598      -4.53015309
H       -0.90258089       3.48174393      -6.32733851
H       -0.53361525       2.13302238      -5.25032527
H        5.24471650       2.04364536      -5.39267519
H        5.65749224       3.71766612      -5.75157152
H        4.08685540       1.83849517      -7.58241344
H        5.72237585       2.46708985      -7.85520793
H        4.31448005       3.55632820      -7.90440562
C        0.62316597       2.32060369      -6.93984163
C        1.21861718       1.80975443      -7.85576023
Br       2.18141142       0.98375439      -9.33672315
C       -3.16623643      -1.54892229      -7.60392882
C       -2.25270084      -1.51028514      -6.39416821
O       -3.03659272      -1.22593244      -5.22340165
C       -3.26658571      -2.25974492      -4.36546604
O       -2.79593998      -3.38147029      -4.50460723
C       -4.07572396      -1.80815616      -3.14269853
C       -3.09574485      -1.05610990      -2.19717145
C       -1.82868574      -1.82868574      -1.82868574
C       -5.24880554      -0.87742431      -3.59399068
C       -6.03552429      -0.13797929      -2.51545630
C       -4.64737386      -3.04467295      -2.45213002
O       -4.49491893      -3.31242816      -1.26776233
O       -5.35332822      -3.80988183      -3.33692637
C       -5.76957432      -5.10687340      -2.88332122
C       -7.23898666      -5.08287798      -2.51906466
H       -2.59446528      -1.73817457      -8.51712138
H       -3.69892145      -0.59853745      -7.71410892
H       -3.92517680      -2.32990751      -7.49361463
H       -1.52646708      -0.69821297      -6.50196300
H       -1.68661656      -2.44338423      -6.30792948
H       -3.60827225      -0.78926774      -1.26534420
H       -2.80523485      -0.10735533      -2.67067730
H       -1.21228963      -2.07640489      -2.69570445
H       -2.02921775      -2.73074128      -1.24749103
H       -5.93754568      -1.43594344      -4.24154555
H       -4.83316788      -0.08642478      -4.23300692
H       -6.60914451       0.67514848      -2.97250552
H       -5.41492332       0.29494719      -1.72975627
H       -5.16030144      -5.47136754      -2.04936807
H       -5.61073303      -5.79516081      -3.72083604
H       -7.40256050      -4.49148818      -1.61371534
H       -7.60917338      -6.09632105      -2.33917918
H       -7.83192976      -4.62541251      -3.31787160
C       -7.03168929      -0.96576792      -1.88615408
C       -7.86597747      -1.65904090      -1.35911347
Br      -9.21495091      -2.78000467      -0.50693338
C       -3.61563928       7.45785465       1.24559361
C       -3.33524351       6.04229790       0.77961277
O       -2.38156648       5.43631176       1.66804857
C       -2.85358096       4.49970935       2.53850636
O       -4.01369844       4.10878632       2.55953275
C       -1.72655409       3.90627408       3.39375049
C       -0.95800394       2.89202400       2.49899826
C       -1.82868574       1.82868574       1.82868574
C       -0.78001402       5.04652928       3.89367722
C        0.52955078       4.64937213       4.56913853
C       -2.34750635       3.19968030       4.59699018
O       -2.12870756       2.03687706       4.90952481
O       -3.17916395       4.04361799       5.27735448
C       -3.99475181       3.46021057       6.30480656
C       -3.40935470       3.76385047       7.66772413
H       -4.32021916       7.95618133       0.57336074
H       -2.69005186       8.04203249       1.27948349
H       -4.03168966       7.45899363       2.25801566
H       -2.88207245       6.06133624      -0.21676564
H       -4.26524053       5.46977204       0.70291771
H       -0.19522653       2.37472257       3.09293509
H       -0.41646972       3.44712291       1.71967484
H       -2.57713464       2.25207443       1.15518991
H       -2.31028868       1.15613158       2.54102981
H       -1.33900860       5.73625673       4.53976934
H       -0.47896777       5.64829866       3.02533315
H        1.20352913       5.51194152       4.59808917
H        1.05662400       3.83327178       4.07308462
H       -4.13389673       2.38299126       6.16414907
H       -4.98326034       3.92479013       6.21867941
H       -2.47505336       3.21535513       7.81735553
H       -4.10669055       3.47762825       8.46035482
H       -3.17977645       4.83001023       7.76542720
C        0.35580590       4.28738982       5.95202737
C        0.21029457       3.98422965       7.11019677
Br      -0.02498495       3.49404528       8.98285873
C        7.60226322      -1.54437134       3.17245298
C        6.20547876      -0.99472269       2.95695274
O        5.46992100      -1.89950545       2.11650035
C        4.51300555      -2.66287202       2.71591909
O        4.20914932      -2.57418083       3.89868735
C        3.77931135      -3.54759449       1.69967283
C        2.77509148      -2.63517997       0.93875475
C        1.82868574      -1.82868574       1.82868574
C        4.80839609      -4.19558452       0.71623992
C        4.26881982      -4.92875266      -0.50861259
C        3.03923216      -4.64883160       2.45611307
O        1.84448390      -4.88822365       2.34240188
O        3.89359934      -5.33089788       3.27563920
C        3.30276953      -6.25294592       4.20405350
C        3.46665800      -7.67201873       3.70225257
H        8.19715428      -0.86391783       3.78868912
H        8.11204636      -1.68583513       2.21368633
H        7.56419607      -2.52275953       3.66174334
H        6.25973804      -0.03637368       2.43053133
H        5.71058464      -0.81123909       3.91610655
H        2.16241577      -3.24036618       0.26010224
H        3.34098254      -1.93885260       0.30343232
H        2.35238660      -1.13834615       2.49366622
H        1.14612726      -2.45378167       2.40754113
H        5.49140311      -4.85097076       1.27266080
H        5.44481898      -3.39749912       0.31028148
H        5.07464885      -5.06860753      -1.23675482
H        3.45207041      -4.41098894      -1.01332696
H        2.25127927      -6.02305621       4.40670158
H        3.84460650      -6.13334294       5.14878044
H        2.84097840      -7.84477980       2.82200582
H        3.17893891      -8.39082443       4.47491029
H        4.50338311      -7.86462496       3.40720580
C        3.82575904      -6.26541496      -0.20756271
C        3.45469564      -7.38486964       0.04456656
Br       2.85471750      -9.19493318       0.45223828
C       -0.00445707       0.01189536      -1.78238275
H       -0.66409135       0.67374010      -2.43557963
H        0.65740317      -0.63156657      -2.45157240
C       -0.90989263      -0.90692880      -0.91072765
C        0.90977584       0.90977584      -0.90977584
C       -0.00465871       1.77757030       0.00794375
H       -0.66225468       2.44313916      -0.64384735
H        0.64322798       2.43503045       0.67728295
C       -1.78241447       0.00034974      -0.00472694
H       -2.45427497      -0.65498947       0.64260836
H       -2.43311707       0.67328779      -0.65473579
C       -0.91132561       0.90220522       0.91563759
C       -0.01476271      -0.02253852       1.78660255
H       -0.67934791      -0.69751639       2.42135241
H        0.63392994       0.61504881       2.47327442
C        0.01484550      -1.77751727      -0.01636693
H        0.67870853      -2.42144646      -0.68295456
H       -0.62264859      -2.45592969       0.64226336
C        1.78714474       0.01002794       0.00389507
H        2.44202412       0.67113390       0.66197326
H        2.45385902      -0.65136977      -0.64189061
C        0.91606151      -0.90478549       0.90901405
