137
Properties=species:S:1:pos:R:3 pbc="F F F"
C        0.00000000       0.00000000       0.00000000
C        0.96808947       6.78135796      -1.83992803
C        0.90372365       5.51403004      -1.00968843
O        0.48316129       4.42491640      -1.84813703
C        1.43430160       3.51809244      -2.20969056
O        2.59234271       3.54682093      -1.81314179
C        0.84185741       2.39034167      -3.06466751
C        0.09118609       1.42926924      -2.09885879
C        0.91878171       0.91878171      -0.91878171
C       -0.13078627       2.98709783      -4.13419690
C       -0.99772458       2.02066894      -4.93630345
Br      -0.04113234       1.19998971      -6.40772648
C        1.98377109       1.66111357      -3.76958010
O        2.17478968       0.45346096      -3.71714671
O        2.76163131       2.54103523      -4.46775780
C        3.99135464       2.03228246      -5.00641976
C        3.84199085       1.77776673      -6.49145964
H        1.26106878       7.63592695      -1.22305342
H       -0.00559453       6.99365854      -2.29379174
H        1.68606229       6.67382107      -2.65910351
H        0.15242769       5.62352386      -0.22097943
H        1.86419235       5.32430251      -0.51972334
H       -0.27635439       0.55710396      -2.65242254
H       -0.79905066       1.94343204      -1.70917401
H        1.26961006       1.72022989      -0.26484695
H        1.76082545       0.29409735      -1.22281519
H        0.42539130       3.64363944      -4.81629186
H       -0.84362351       3.64626196      -3.62024907
H       -1.81248491       2.57183991      -5.41743449
H       -1.44351928       1.22311836      -4.34042124
H        4.33481248       1.13374134      -4.48277116
H        4.74758821       2.80776209      -4.84166750
H        3.17695138       0.92859115      -6.67250942
H        4.81247182       1.55718582      -6.94530390
H        3.40457603       2.64642418      -6.99450160
C       -6.23891804       0.02366319      -3.37412062
C       -4.81551129       0.37339073      -2.98532155
O       -4.41176313      -0.45911293      -1.88533866
C       -3.53579696      -1.46667108      -2.15961656
O       -3.03502817      -1.65662280      -3.26065446
C       -3.15817182      -2.24569509      -0.89299967
C       -2.13259256      -1.37708476      -0.10963681
C       -0.91878171      -0.91878171      -0.91878171
C       -4.43657940      -2.51932696      -0.03460209
C       -4.25122809      -3.08044682       1.37242710
Br      -3.95450654      -4.99500030       1.38292298
C       -2.53186985      -3.57579045      -1.30680446
O       -1.43928840      -3.97719572      -0.92891323
O       -3.35873276      -4.25664241      -2.15504917
C       -2.81496737      -5.42235152      -2.79273798
C       -3.32656988      -6.67369551      -2.11095184
H       -6.58547973       0.65948277      -4.19405219
H       -6.91330652       0.15250358      -2.52105282
H       -6.31153531      -1.02368873      -3.68376282
H       -4.76836994       1.41106558      -2.63962662
H       -4.14740736       0.28754622      -3.84835707
H       -1.76435985      -1.93089326       0.76208099
H       -2.64858982      -0.49020199       0.28523642
H       -1.18670616      -0.29415904      -1.77382170
H       -0.28519516      -1.74454942      -1.24799341
H       -5.13456774      -3.15128231      -0.59947255
H       -4.96457024      -1.56666323       0.10834596
H       -5.17498656      -2.94689492       1.94509200
H       -3.44189035      -2.61310145       1.93497148
H       -1.72027633      -5.40718495      -2.82386369
H       -3.16522266      -5.40113979      -3.83065535
H       -2.89501196      -6.77219390      -1.11084608
H       -3.06221192      -7.56413810      -2.68861152
H       -4.41461226      -6.63738608      -1.99350346
C       -2.16417308       6.71750451       0.70769788
C       -1.96228041       5.32643645       0.13872525
O       -1.14881266       4.56263409       1.04476798
C       -1.77608826       3.60348158       1.78251476
O       -2.96199736       3.32057723       1.66973084
C       -0.78651355       2.83897767       2.67137536
C       -0.02703951       1.83727184       1.75500278
C       -0.91878171       0.91878171       0.91878171
C        0.20264726       3.84115092       3.35200479
C        1.40640184       3.26973551       4.09591413
Br       0.96227167       2.65136069       5.87749484
C       -1.57281559       2.09372158       3.74792759
O       -1.48238522       0.89355170       3.96946043
O       -2.38951945       2.95030194       4.43060296
C       -3.34239206       2.35997882       5.32768599
C       -2.86139529       2.49263394       6.75718799
H       -2.75944501       7.33336594       0.02723822
H       -1.19974390       7.20910898       0.87300288
H       -2.67002735       6.67166984       1.67728968
H       -1.41937250       5.38752476      -0.80996628
H       -2.92616539       4.85040278      -0.06834996
H        0.63158157       1.20382167       2.36093202
H        0.62870651       2.40382998       1.07843192
H       -1.56377355       1.46443276       0.22648059
H       -1.51879138       0.23581087       1.52313575
H       -0.35335335       4.52252425       4.00944500
H        0.63190285       4.48363664       2.57115372
H        2.14508076       4.06112320       4.26074704
H        1.90628571       2.45328002       3.57302602
H       -3.55820871       1.31581508       5.07730119
H       -4.27614207       2.91913080       5.20174493
H       -1.99433747       1.84986180       6.93385267
H       -3.65031205       2.20606733       7.45858216
H       -2.55283052       3.52112080       6.97155048
C        4.35131227       0.35222880       5.59029199
C        3.09538777       0.41039879       4.74245314
O        3.42676166       0.05916676       3.38861982
C        3.03558465      -1.17214033       2.95435961
O        2.37358333      -1.95488678       3.62383533
C        3.41400603      -1.39804562       1.48481494
C        2.38677942      -0.61143071       0.62110400
C        0.91878171      -0.91878171       0.91878171
C        4.87141762      -0.89302241       1.22606843
C        5.36015445      -0.81672021      -0.21762685
Br       5.93831738      -2.53334625      -0.90507977
C        3.33567776      -2.89361312       1.18517387
O        2.68441499      -3.38693536       0.27404701
O        4.09319901      -3.60496945       2.07225589
C        3.94992121      -5.03326652       2.04686913
C        5.12457150      -5.66041242       1.32623331
H        4.13666527       0.64018730       6.62357119
H        5.11687478       1.02530864       5.19028962
H        4.77773140      -0.65585869       5.58539678
H        2.70528350       1.43314170       4.72478917
H        2.31372132      -0.22845136       5.16604552
H        2.56229024      -0.81312475      -0.44224288
H        2.55725497       0.46554186       0.76184229
H        0.63170160      -0.67817929       1.94480601
H        0.64024201      -1.94889645       0.68859954
H        5.57906946      -1.47696972       1.82928342
H        4.95129061       0.13456146       1.60615836
H        6.25619578      -0.18933851      -0.26874481
H        4.62793903      -0.40642411      -0.91434281
H        2.99903800      -5.34828530       1.60400169
H        3.94182657      -5.36376019       3.09143105
H        5.08578488      -5.43568210       0.25658497
H        5.11813924      -6.74724691       1.44957539
H        6.07229363      -5.26595585       1.70725232
