86
Properties=species:S:1:pos:R:3 pbc="F F F"
C        3.07748485      -0.15842924      -4.54714595
O        2.58347909       0.05610254      -3.23329037
C        2.54069119       1.35594809      -2.85017112
C        1.77934616       1.77934616      -1.77934616
O        1.89328015       3.12368910      -1.61907043
C        2.73889210       3.57993750      -2.58592323
Br       3.12269518       5.39449016      -2.80582250
C        3.20273814       2.51747180      -3.34009343
O        4.04481150       2.57430582      -4.39915895
C        5.34442466       3.05456332      -4.05095913
H        2.90800119      -1.21098437      -4.79879538
H        4.15678811       0.02076005      -4.59636385
H        2.53881349       0.44781661      -5.28552242
H        6.07640425       2.49590922      -4.63754115
H        5.58603309       2.91879748      -2.98947247
H        5.43160278       4.10848896      -4.32676665
C       -5.26098010      -1.28028541      -0.92493604
O       -3.86119306      -1.32162450      -0.69005443
C       -3.14382094      -1.94779187      -1.65519758
C       -1.77934616      -1.77934616      -1.77934616
O       -1.30743310      -2.49559197      -2.83301461
C       -2.36803383      -3.14078693      -3.39593207
Br      -2.20366007      -4.18084703      -4.93850074
C       -3.51582806      -2.87166049      -2.67281481
O       -4.76784533      -3.31738389      -2.93304704
C       -4.88579190      -4.73714760      -2.82700761
H       -5.70459753      -0.61463689      -0.17657778
H       -5.71206264      -2.26942269      -0.79242668
H       -5.49288644      -0.86575355      -1.91351253
H       -5.86044786      -4.96064669      -2.38876007
H       -4.11588425      -5.18905188      -2.18936691
H       -4.85964950      -5.18250085      -3.82470803
C       -0.06809269       4.88267284       2.51543602
O       -0.17138993       3.50222202       2.19926004
C       -1.41059357       2.97616937       2.36004746
C       -1.77934616       1.77934616       1.77934616
O       -3.07277832       1.48756435       2.07569701
C       -3.54940284       2.49555676       2.85979323
Br      -5.32393114       2.56039956       3.43867713
C       -2.54392486       3.41354666       3.10283185
O       -2.63844659       4.55595913       3.82387054
C       -2.92608827       4.32058730       5.20327154
H        0.92016194       5.22560971       2.19036443
H       -0.13222575       5.04507537       3.59661089
H       -0.81657931       5.47753989       1.97803332
H       -2.36724846       5.05108697       5.79151919
H       -2.63426804       3.31857433       5.54146067
H       -3.99001850       4.48749356       5.38934633
C        2.41952893      -4.92999131       0.11668131
O        1.68660971      -3.75515251       0.43110978
C        2.12401733      -3.09262148       1.53017158
C        1.77934616      -1.77934616       1.77934616
O        2.36230868      -1.34615640       2.92757459
C        3.08599994      -2.38395131       3.43480159
Br       4.13435355      -2.21716799       4.97148629
C        2.92970255      -3.49896488       2.63163594
O        3.50473574      -4.71341328       2.80012725
C        3.08450492      -5.36594052       3.99950167
H        2.08592158      -5.27713953      -0.86724891
H        2.20936890      -5.72951030       0.83503281
H        3.49549428      -4.72885776       0.04780048
H        2.99151841      -6.43254627       3.78578995
H        2.11556652      -5.00883577       4.36990076
H        3.85092362      -5.24651775       4.76941701
C       -0.00445707       0.01189536      -1.78238275
H       -0.66409135       0.67374010      -2.43557963
H        0.65740317      -0.63156657      -2.45157240
C       -0.90989263      -0.90692880      -0.91072765
C        0.90977584       0.90977584      -0.90977584
C       -0.00465871       1.77757030       0.00794375
H       -0.66225468       2.44313916      -0.64384735
H        0.64322798       2.43503045       0.67728295
C       -1.78241447       0.00034974      -0.00472694
H       -2.45427497      -0.65498947       0.64260836
H       -2.43311707       0.67328779      -0.65473579
C       -0.91132561       0.90220522       0.91563759
C       -0.01476271      -0.02253852       1.78660255
H       -0.67934791      -0.69751639       2.42135241
H        0.63392994       0.61504881       2.47327442
C        0.01484550      -1.77751727      -0.01636693
H        0.67870853      -2.42144646      -0.68295456
H       -0.62264859      -2.45592969       0.64226336
C        1.78714474       0.01002794       0.00389507
H        2.44202412       0.67113390       0.66197326
H        2.45385902      -0.65136977      -0.64189061
C        0.91606151      -0.90478549       0.90901405
