149
Properties=species:S:1:pos:R:3 pbc="F F F"
C        0.00000000       0.00000000       0.00000000
C        0.88188072       0.88188072      -0.88188072
C        0.74414757       0.83265074      -2.26728811
C        1.56067448       1.63293408      -3.07062766
C        2.50722519       2.48626588      -2.49714695
N        3.35289153       3.22543179      -3.33365042
C        3.25965009       4.51750261      -3.29223352
C        4.11563614       5.37088509      -4.14284956
C        3.98736159       6.76181869      -4.07453816
C        4.79223908       7.57287228      -4.88264444
C        5.72607996       6.98939675      -5.74552800
C        5.85621127       5.59921929      -5.81044691
C        5.04718542       4.79013187      -5.01108685
C        6.60316046       7.81361007      -6.59977937
N        6.41612781       9.08444609      -6.76398775
C        7.31317839       9.77552862      -7.59629333
C        7.82973038      10.99474104      -7.14715867
C        8.71916075      11.73147932      -7.93517406
C        9.09316357      11.24811769      -9.18613877
Br      10.30627390      12.23139673     -10.25101519
C        8.57310046      10.04631275      -9.66131757
C        7.67519697       9.32153352      -8.87196047
C        2.64395110       2.51589004      -1.10539003
C        1.82830581       1.72052254      -0.29532657
H        0.01844272       0.17082814      -2.73227439
H        1.47103855       1.58346373      -4.15273454
H        2.54155238       5.03113474      -2.62692957
H        3.27056212       7.22562970      -3.40189259
H        4.69514470       8.65554863      -4.83243684
H        6.57257826       5.13338717      -6.48181301
H        5.14497391       3.70780491      -5.06776341
H        7.43434277       7.27833144      -7.09484270
H        7.53169752      11.37233412      -6.17217902
H        9.10812417      12.67543851      -7.56342684
H        8.85185722       9.66849886     -10.64108242
H        7.25554904       8.39877716      -9.26213637
H        3.40203180       3.14737889      -0.65019211
H        1.94986745       1.75219525       0.78391145
C       -0.88188072      -0.88188072      -0.88188072
C       -2.22480102      -0.55777363      -1.06151177
C       -3.03053844      -1.37357038      -1.86012740
C       -2.50010031      -2.50537310      -2.48516460
N       -3.35075822      -3.33611347      -3.22510205
C       -3.12659201      -3.44585807      -4.49693614
C       -3.97765840      -4.30215419      -5.34955820
C       -3.70887081      -4.39607459      -6.71877304
C       -4.51610156      -5.20146386      -7.53019037
C       -5.57943609      -5.91483826      -6.96673036
C       -5.84508198      -5.82329644      -5.59749907
C       -5.04553404      -5.01299349      -4.78987662
C       -6.44108438      -6.78690716      -7.78855836
N       -6.40695676      -6.77457635      -9.08302854
C       -7.26758986      -7.64892836      -9.76848211
C       -6.74587126      -8.39854727     -10.82721155
C       -7.55596988      -9.27815654     -11.55168771
C       -8.90160837      -9.40730221     -11.21850946
Br      -9.99963481     -10.60505074     -12.18400027
C       -9.44602822      -8.65346347     -10.18123909
C       -8.63176342      -7.76753986      -9.46938769
C       -1.15337819      -2.82635719      -2.28549578
C       -0.34054192      -2.01305054      -1.49056247
H       -2.65726932       0.31442927      -0.57870520
H       -4.08362218      -1.13633016      -1.98728447
H       -2.29866309      -2.90736167      -4.99359193
H       -2.88048028      -3.85226843      -7.16533569
H       -4.31020375      -5.27687718      -8.59604924
H       -6.67241857      -6.36654063      -5.14881924
H       -5.25782894      -4.93746464      -3.72524864
H       -7.12218803      -7.45524645      -7.23008244
H       -5.69599986      -8.29161604     -11.08859477
H       -7.12685102      -9.85094060     -12.36919790
H      -10.49769771      -8.74084833      -9.92289245
H       -9.07150970      -7.16548706      -8.67946581
H       -0.73938121      -3.72440218      -2.73581941
H        0.70256214      -2.27849778      -1.34221561
C       -0.88188072       0.88188072       0.88188072
C       -1.79633345       1.75332774       0.29442523
C       -2.59319623       2.56627261       1.10476738
C       -2.48636990       2.50733412       2.49693400
N       -3.25344479       3.38222709       3.27630186
C       -4.13862271       2.86288249       4.06788103
C       -4.98933650       3.71607386       4.92396042
C       -5.93608731       3.12264571       5.76498542
C       -6.74727892       3.92766773       6.57280914
C       -6.60022531       5.31853494       6.54224446
C       -5.65116256       5.91060689       5.70410803
C       -4.84838886       5.10819285       4.89182244
C       -7.42638882       6.19765769       7.39250339
N       -8.46222628       5.76453171       8.03780366
C       -9.17666264       6.68603871       8.82229898
C       -9.54354024       6.31001537      10.11807447
C      -10.26280771       7.18115010      10.94185632
C      -10.62321362       8.43875648      10.46544993
Br     -11.58307087       9.62733923      11.57827573
C      -10.28633542       8.82445510       9.16994026
C       -9.57717175       7.94290441       8.34861480
C       -1.55474841       1.63743197       3.07305078
C       -0.75656571       0.81883858       2.26875064
H       -1.88954163       1.81830024      -0.78629662
H       -3.29396175       3.26229274       0.65098232
H       -4.29484454       1.77050039       4.13427176
H       -6.05312198       2.04269786       5.80226457
H       -7.48522562       3.46956830       7.22833624
H       -5.53206055       6.99007384       5.66564404
H       -4.11466164       5.57103919       4.23484139
H       -7.10688093       7.25479772       7.44583827
H       -9.26541832       5.32530985      10.48548250
H      -10.53487684       6.86650214      11.94561054
H      -10.57384359       9.79994515       8.78764976
H       -9.34178250       8.24307563       7.33160443
H       -1.43644468       1.61032083       4.15283729
H       -0.03489739       0.15149240       2.73176146
C        0.88188072      -0.88188072       0.88188072
C        0.29972808      -1.86323768       1.68112066
C        1.10930180      -2.66025563       2.49467879
C        2.49594782      -2.48689397       2.50779623
N        3.27033694      -3.25859472       3.38304209
C        4.12662564      -4.08045693       2.86230366
C        4.98257936      -4.93104358       3.71574785
C        5.89457072      -5.80850506       3.12064265
C        6.70268525      -6.61955433       3.92551621
C        6.60123405      -6.54118705       5.31858361
C        5.69207584      -5.66122080       5.91258084
C        4.87979481      -4.85890124       5.10970810
C        7.44900746      -7.36879346       6.19874898
N        8.16263462      -8.35184979       5.75007724
C        8.93746508      -9.07303717       6.67449808
C       10.26529980      -9.36149200       6.34483828
C       11.08187564     -10.08327062       7.22066787
C       10.56611982     -10.52529835       8.43600187
Br      11.66810256     -11.48914150       9.63144177
C        9.23955017     -10.26723001       8.77395060
C        8.42639004      -9.55491855       7.88738237
C        3.06588942      -1.48900139       1.71034036
C        2.26254018      -0.69011705       0.89149769
H       -0.77709594      -2.00899885       1.68964233
H        0.65829285      -3.41381498       3.13512898
H        4.25055705      -4.18069600       1.76836364
H        5.98699754      -5.87157932       2.03950754
H        7.41332292      -7.30370806       3.46609920
H        5.59838937      -5.59611504       6.99327402
H        4.16769154      -4.17925294       5.57359774
H        7.43829421      -7.09843521       7.27078750
H       10.66372708      -9.01970920       5.39277439
H       12.11095338     -10.29349265       6.94254348
H        8.82714847     -10.61861810       9.71567192
H        7.38651614      -9.38120701       8.14873942
H        4.13883329      -1.32006588       1.74070363
H        2.72043134       0.08334210       0.28106200
