98
Properties=species:S:1:pos:R:3 pbc="F F F"
C        1.53732673       3.19423917      -5.32818546
C        2.08515557       2.89017002      -3.96240403
C        1.33898178       2.08030794      -3.09067240
C        1.79764172       1.79764172      -1.79764172
C        3.01591739       2.31698145      -1.34199540
C        3.53187025       2.06785671       0.04710661
C        3.76692277       3.11861422      -2.21724569
C        3.30788352       3.40189700      -3.51000129
H        0.59269341       2.66906756      -5.50844055
H        2.23793134       2.87488436      -6.10696816
H        1.33876874       4.26673458      -5.42688373
H        0.38636017       1.67093343      -3.42126761
H        4.51795156       2.52142787       0.19703996
H        3.63864268       0.99413561       0.23438240
H        2.85446784       2.50653919       0.78747786
H        4.71706331       3.53209956      -1.88489134
C        4.13596704       4.23893119      -4.33900760
C        4.82948698       4.93994731      -5.03330038
Br       5.95085008       6.07343110      -6.15591310
C       -5.23233026      -3.39524519      -1.43217591
C       -3.90509073      -3.01035462      -2.02228428
C       -3.03093663      -2.20557239      -1.27345310
C       -1.79764172      -1.79764172      -1.79764172
C       -1.40510133      -2.18464987      -3.08514304
C       -0.10711317      -1.74446161      -3.70104558
C       -2.27487322      -2.99777070      -3.83013876
C       -3.50849423      -3.40505727      -3.30623031
H       -5.33826326      -3.02592518      -0.40601308
H       -5.33935969      -4.48454055      -1.39588363
H       -6.04856617      -2.96308172      -2.02073915
H       -3.31788744      -1.88771911      -0.27295466
H        0.03695595      -2.18573562      -4.69355980
H        0.74113206      -2.05677724      -3.08275071
H       -0.09496332      -0.65608163      -3.82248422
H       -1.99013290      -3.31141057      -4.83251073
C       -4.34290804      -4.23075206      -4.14024572
C       -5.04172960      -4.92227145      -4.83873363
Br      -6.17166497      -6.04039981      -5.96812950
C       -1.93560633       2.61144170       5.51270334
C       -2.28460106       2.60194702       4.05118155
C       -1.52649550       1.81160430       3.17186232
C       -1.79764172       1.79764172       1.79764172
C       -2.83537322       2.57352280       1.26599822
C       -3.14151020       2.61561632      -0.20450618
C       -3.59995808       3.35614480       2.14667980
C       -3.32830760       3.37068458       3.52078963
H       -1.11948279       1.91510622       5.73561251
H       -2.79516562       2.30596317       6.11865508
H       -1.60509712       3.61020528       5.81708465
H       -0.71121275       1.20538404       3.56196441
H       -4.01338334       3.24471949      -0.41576336
H       -3.36782130       1.61294365      -0.58236907
H       -2.29395567       3.03588622      -0.75631273
H       -4.41193809       3.96621072       1.75590540
C       -4.15526580       4.20736692       4.35127310
C       -4.84784329       4.90808839       5.04680300
Br      -5.96768252       6.04109573       6.17141603
C        5.23550074      -3.38909324       1.43515739
C        3.90668660      -3.00730656       2.02373646
C        3.03244219      -2.20272719       1.27479275
C        1.79764172      -1.79764172       1.79764172
C        1.40364681      -2.18736972       3.08387771
C        0.10395265      -1.75027998       3.69838772
C        2.27352875      -3.00028855       3.82896538
C        3.50865381      -3.40472984       3.30639815
H        5.34249495      -3.01794032       0.40976625
H        5.34435339      -4.47815383       1.39727664
H        6.05008234      -2.95656418       2.02574053
H        3.32049560      -1.88278965       0.27527596
H       -0.04100657      -2.19339387       4.68995217
H       -0.74278426      -2.06296512       3.07821503
H        0.08984309      -0.66211925       3.82156683
H        1.98767596      -3.31601215       4.83036610
C        4.34305414      -4.23042401       4.14042767
C        5.04186441      -4.92194288       4.83892739
Br       6.17178152      -6.04007040       5.96834235
C       -0.00445707       0.01189536      -1.78238275
H       -0.66409135       0.67374010      -2.43557963
H        0.65740317      -0.63156657      -2.45157240
C       -0.90989263      -0.90692880      -0.91072765
C        0.90977584       0.90977584      -0.90977584
C       -0.00465871       1.77757030       0.00794375
H       -0.66225468       2.44313916      -0.64384735
H        0.64322798       2.43503045       0.67728295
C       -1.78241447       0.00034974      -0.00472694
H       -2.45427497      -0.65498947       0.64260836
H       -2.43311707       0.67328779      -0.65473579
C       -0.91132561       0.90220522       0.91563759
C       -0.01476271      -0.02253852       1.78660255
H       -0.67934791      -0.69751639       2.42135241
H        0.63392994       0.61504881       2.47327442
C        0.01484550      -1.77751727      -0.01636693
H        0.67870853      -2.42144646      -0.68295456
H       -0.62264859      -2.45592969       0.64226336
C        1.78714474       0.01002794       0.00389507
H        2.44202412       0.67113390       0.66197326
H        2.45385902      -0.65136977      -0.64189061
C        0.91606151      -0.90478549       0.90901405
