133
Properties=species:S:1:pos:R:3 pbc="F F F"
C        0.00000000       0.00000000       0.00000000
C        1.28148623       1.39811096      -4.63573971
C        1.50392154       1.55111795      -3.15420815
C        0.72588636       0.78174429      -2.27273993
C        0.88721094       0.88721094      -0.88721094
C        1.82636260       1.77165547      -0.34588614
C        2.58590406       2.55647573      -1.22911490
C        2.43534790       2.46901537      -2.62803516
C        3.27502564       3.32639165      -3.48339113
C        4.59157328       2.91209234      -3.76982546
C        5.45578040       3.67339649      -4.57373595
C        6.84921702       3.17307230      -4.83056405
C        4.97598057       4.87412531      -5.10830817
C        3.67439875       5.30549910      -4.83204252
C        2.82021334       4.55306854      -4.00822084
C        1.42793595       5.06575614      -3.75099334
Br       6.04730655       5.97669331      -6.22428591
C        2.04584667       1.91281254       1.13392821
H        0.79631128       0.44285543      -4.86379617
H        2.22851174       1.40592287      -5.18374597
H        0.63945704       2.20222807      -5.00613420
H       -0.01029257       0.08845600      -2.67492759
H        3.31534493       3.25926168      -0.82614490
H        4.94366129       1.96836190      -3.35274060
H        7.03905539       2.22890595      -4.30864181
H        7.58816711       3.89564162      -4.46972904
H        7.00039189       2.99148165      -5.89921225
H        3.31888347       6.24218139      -5.25755440
H        1.13305252       4.91256948      -2.70852053
H        0.71311398       4.56412047      -4.40947113
H        1.36489449       6.14334028      -3.93847517
H        2.83688166       2.63760990       1.35493278
H        2.35386339       0.95635705       1.56836484
H        1.13337712       2.26544449       1.62475055
C       -4.63557720      -1.40261683      -1.27714286
C       -3.15374772      -1.56388433      -1.49161559
C       -2.27274253      -0.78167243      -0.72595563
C       -0.88721094      -0.88721094      -0.88721094
C       -0.34583710      -1.77301525      -1.82505186
C       -1.22984372      -2.53626779      -2.60538318
C       -2.62903347      -2.44133502      -2.46202994
C       -3.48502962      -3.28096112      -3.31881768
C       -3.70817933      -4.62135907      -2.94395268
C       -4.50832612      -5.48701950      -3.70756723
C       -4.69592586      -6.90619496      -3.25073255
C       -5.10432404      -4.98459351      -4.86949649
C       -4.89142827      -3.65890619      -5.26160591
C       -4.07136772      -2.80219038      -4.50794461
C       -3.88378933      -1.38371237      -4.97718374
Br      -6.22140896      -6.05646264      -5.97041416
C        1.13461396      -1.93182645      -2.02751851
H       -4.84510804      -0.96102266      -0.29683219
H       -5.14902762      -2.36856093      -1.30059202
H       -5.05864236      -0.74633049      -2.04284646
H       -2.67499873      -0.08648357       0.00839128
H       -0.82740379      -3.22435636      -3.34899135
H       -3.24371296      -4.99137887      -2.02967196
H       -4.13259089      -7.11028224      -2.33373002
H       -4.33596085      -7.60464176      -4.01293516
H       -5.75090396      -7.10363636      -3.03654548
H       -5.36417038      -3.28603247      -6.16841641
H       -2.84761844      -1.05579186      -4.85073223
H       -4.54838214      -0.71252512      -4.42579831
H       -4.11355283      -1.28894949      -6.04420761
H        1.35672967      -2.68743245      -2.78885600
H        1.61529685      -2.25764432      -1.09950813
H        1.57873422      -0.98954621      -2.36325905
C       -1.38780343       1.29146607       4.63606739
C       -1.55655279       1.49865948       3.15403537
C       -0.77484990       0.73256158       2.27295911
C       -0.88721094       0.88721094       0.88721094
C       -1.77953972       1.81872900       0.34563550
C       -2.54233537       2.59959488       1.22956443
C       -2.44059893       2.46286097       2.62893854
C       -3.28022885       3.31972088       3.48485868
C       -4.61795600       2.93994042       3.71559466
C       -5.48345333       3.70326676       4.51619276
C       -6.89975014       3.24101333       4.71208991
C       -4.98355566       4.87002910       5.10482929
C       -3.66057001       5.26703419       4.88433617
C       -2.80414904       4.51353325       4.06382042
C       -1.38860452       4.98818790       3.86789300
Br      -6.05535406       5.97114648       6.22178522
C       -1.94577356       2.01393351      -1.13497607
H       -0.94095144       0.31405015       4.84796129
H       -2.35156818       1.31292927       5.15368313
H       -0.73305593       2.06192300       5.05284039
H       -0.07464776       0.00307669       2.67536656
H       -3.23547919       3.33837135       0.82690096
H       -4.98596700       2.02198833       3.25680845
H       -7.10225581       2.32063332       4.15371402
H       -7.60314703       3.99852634       4.35186440
H       -7.09158638       3.03063285       5.76886656
H       -3.28963556       6.17756544       5.35141825
H       -1.06469988       4.85859519       2.83084746
H       -0.71205706       4.44271713       4.53193138
H       -1.29755672       6.05662661       4.09252660
H       -2.70571678       2.77093996      -1.35709795
H       -2.26959419       1.08237513      -1.61011372
H       -1.00695754       2.35185573      -1.58474222
C        4.63337334      -1.44679078       1.23517278
C        3.15252490      -1.58574484       1.47097789
C        2.27175442      -0.80201789       0.70659828
C        0.88721094      -0.88721094       0.88721094
C        0.34676586      -1.75355838       1.84357997
C        1.23097658      -2.51817816       2.62233995
C        2.62927372      -2.44353625       2.45958847
C        3.48549290      -3.28315486       3.31616065
C        3.68626157      -4.63112917       2.95610034
C        4.48507668      -5.49725291       3.72058326
C        4.64819957      -6.92458811       3.28006570
C        5.10278895      -4.98766405       4.86796104
C        4.91230834      -3.65430881       5.24532322
C        4.09359767      -2.79673684       4.49116821
C        3.93065031      -1.36993813       4.94409699
Br       6.22024841      -6.05975090       5.96828645
C       -1.13283049      -1.89023065       2.06733084
H        4.83570361      -1.02076226       0.24649701
H        5.13449833      -2.41902194       1.26466030
H        5.07496670      -0.78623857       1.98661404
H        2.67330770      -0.12177949      -0.04199617
H        0.82945369      -3.19119477       3.38010304
H        3.20503707      -5.00684876       2.05287795
H        4.07024278      -7.13313783       2.37322254
H        4.28925449      -7.60827861       4.05600467
H        5.69761423      -7.13866074       3.05481082
H        5.40174592      -3.27594172       6.14093161
H        2.89725174      -1.03008060       4.82681021
H        4.59659129      -0.71477306       4.37534122
H        4.17564689      -1.26435591       6.00670713
H       -1.35470363      -2.63289585       2.84136656
H       -1.62987528      -2.22172079       1.15001009
H       -1.56021775      -0.93790630       2.39638251
