162
Properties=species:S:1:pos:R:3 pbc="F F F"
C        2.19139025       2.30801498      -5.54564373
C        2.41382556       2.46102197      -4.06411217
C        1.63579039       1.69164832      -3.18264396
C        1.79711496       1.79711496      -1.79711496
C        2.73626662       2.68155950      -1.25579017
C        3.49580808       3.46637976      -2.13901892
C        3.34525193       3.37891940      -3.53793918
C        4.18492966       4.23629567      -4.39329515
C        5.50147730       3.82199637      -4.67972949
C        6.36568443       4.58330052      -5.48363997
C        7.75912104       4.08297633      -5.74046808
C        5.88588459       5.78402933      -6.01821220
C        4.58430278       6.21540312      -5.74194655
C        3.73011736       5.46297256      -4.91812486
C        2.33783998       5.97566017      -4.66089736
C        2.95575069       2.82271657       0.22402419
H        1.70621530       1.35275945      -5.77370020
H        3.13841576       2.31582689      -6.09364999
H        1.54936106       3.11213210      -5.91603822
H        0.89961146       0.99836002      -3.58483161
H        4.22524895       4.16916570      -1.73604892
H        5.85356531       2.87826592      -4.26264462
H        7.94895942       3.13880997      -5.21854583
H        8.49807113       4.80554564      -5.37963306
H        7.91029591       3.90138567      -6.80911628
H        4.22878749       7.15208542      -6.16745842
H        2.04295655       5.82247351      -3.61842456
H        1.62301800       5.47402449      -5.31937515
H        2.27479851       7.05324430      -4.84837919
H        3.74678568       3.54751393       0.44502876
H        3.26376741       1.86626107       0.65846081
H        2.04328114       3.17534851       0.71484653
C        6.69797169       6.61979852      -6.86414624
C        7.37809463       7.31975521      -7.57261601
Br       8.47779590       8.45152599      -8.71815170
C       -5.48998247      -2.70710625      -1.84796025
C       -4.03511304      -2.66894569      -2.23490097
C       -3.15730399      -1.87333589      -1.47944278
C       -1.79711496      -1.79711496      -1.79711496
C       -1.27984527      -2.50908440      -2.88468661
C       -2.16434642      -3.28478159      -3.65207874
C       -3.53901588      -3.37119950      -3.35189514
C       -4.39683036      -4.21094825      -4.20674188
C       -4.43170995      -5.60029636      -3.97119684
C       -5.22064399      -6.46898159      -4.74299933
C       -5.20245088      -7.94055940      -4.43955517
C       -5.99914387      -5.92074919      -5.76823306
C       -5.97487322      -4.54531900      -6.02146023
C       -5.16650767      -3.68206794      -5.26263918
C       -5.18611161      -2.20987424      -5.57841166
C        0.17482050      -2.46992618      -3.25933740
H       -5.62776906      -2.39908563      -0.80582026
H       -5.89795122      -3.71898701      -1.93095442
H       -6.06719998      -2.02830240      -2.48202900
H       -3.54112601      -1.31172915      -0.62994793
H       -1.78218363      -3.83837987      -4.50990007
H       -3.82625078      -6.00720955      -3.16101553
H       -4.51653142      -8.17225302      -3.61753078
H       -4.86333026      -8.50743655      -5.31248303
H       -6.19807780      -8.28253129      -4.14018877
H       -6.58792347      -4.13735119      -6.82305667
H       -4.18262197      -1.77717832      -5.52405432
H       -5.84802109      -1.68363334      -4.88476322
H       -5.54883560      -2.03097213      -6.59661427
H        0.38395220      -3.10959502      -4.12362803
H        0.79325393      -2.83272768      -2.43209393
H        0.47445493      -1.45174083      -3.52649722
C       -6.84808316      -6.73497082      -6.59886247
C       -7.55906981      -7.41688144      -7.29451460
Br      -8.70867510      -8.51947323      -8.41932526
C       -1.49258841       3.25564765       5.29681292
C       -2.06711595       2.92793365       3.94391011
C       -1.31412071       2.12852211       3.06743984
C       -1.79711496       1.79711496       1.79711496
C       -3.04377818       2.26351540       1.36632271
C       -3.78352678       3.08188233       2.23579766
C       -3.31279013       3.43156082       3.51775956
C       -4.15408741       4.29222411       4.36820896
C       -5.20244237       3.69978244       5.10097834
C       -6.05049835       4.45076507       5.93136150
C       -7.15258031       3.75281462       6.67717052
C       -5.82799423       5.82850362       6.03162827
C       -4.79625262       6.43651297       5.30888686
C       -3.96442379       5.68595454       4.46083646
C       -2.86703252       6.39507830       3.71228668
C       -3.61180103       1.92587382       0.01676822
H       -0.71786629       2.53484876       5.57995990
H       -2.25917618       3.21235367       6.07636279
H       -1.04152050       4.25182841       5.28418247
H       -0.34172535       1.75662094       3.38445681
H       -4.75250878       3.46389630       1.91405849
H       -5.35330112       2.62326281       5.01791192
H       -7.17474973       2.68143583       6.45012967
H       -8.12687781       4.16322062       6.39315141
H       -7.00874673       3.85471068       7.75734045
H       -4.63834822       7.50960207       5.40038104
H       -2.77566013       6.01951772       2.68867676
H       -1.91322882       6.27040531       4.23278351
H       -3.07420463       7.46805871       3.63415866
H       -4.60483332       2.36682088      -0.12238334
H       -3.72168573       0.84215219      -0.09227025
H       -2.96765433       2.31435408      -0.77822528
C       -6.63944011       6.67233638       6.87013996
C       -7.31902603       7.37904632       7.57239350
Br      -8.41785899       8.52173652       8.70787808
C        4.64385401      -4.23868968       1.16250528
C        3.61410080      -3.42446782       1.90039108
C        2.76806343      -2.57923898       1.16278025
C        1.79711496      -1.79711496       1.79711496
C        1.65180567      -1.83371538       3.18809524
C        2.51482717      -2.66179810       3.92458150
C        3.50290614      -3.45392293       3.30528144
C        4.36471442      -4.29748521       4.15232086
C        3.87398513      -5.54704403       4.58217399
C        4.63141658      -6.40785685       5.39335149
C        4.04070171      -7.72206850       5.81979524
C        5.91643278      -6.00193262       5.76976072
C        6.42003553      -4.76365753       5.35795938
C        5.65067356      -3.89463218       4.56590905
C        6.24840944      -2.57689731       4.14909076
C        0.61687968      -1.02239462       3.91516877
H        4.37240208      -4.35285000       0.10742287
H        4.72368409      -5.24883716       1.57537140
H        5.61950026      -3.74700111       1.21103002
H        2.86626044      -2.53677541       0.07976724
H        2.42421454      -2.69584668       5.01040235
H        2.87447716      -5.85024457       4.26975413
H        3.02030878      -7.84509634       5.44091011
H        3.98913652      -7.78251072       6.91160260
H        4.63590874      -8.55408542       5.43080370
H        7.42227541      -4.46560168       5.66045423
H        5.51120906      -1.77014172       4.20250383
H        6.64055891      -2.64545371       3.13040502
H        7.07245587      -2.29163693       4.81232920
H        0.64865222      -1.20601219       4.99460644
H       -0.38824765      -1.28775179       3.57206353
H        0.79032457       0.04712752       3.76058608
C        6.76726271      -6.82722004       6.58743370
C        7.47983277      -7.51839826       7.27223483
Br       8.63199830      -8.63597497       8.37950032
C       -0.00445707       0.01189536      -1.78238275
H       -0.66409135       0.67374010      -2.43557963
H        0.65740317      -0.63156657      -2.45157240
C       -0.90989263      -0.90692880      -0.91072765
C        0.90977584       0.90977584      -0.90977584
C       -0.00465871       1.77757030       0.00794375
H       -0.66225468       2.44313916      -0.64384735
H        0.64322798       2.43503045       0.67728295
C       -1.78241447       0.00034974      -0.00472694
H       -2.45427497      -0.65498947       0.64260836
H       -2.43311707       0.67328779      -0.65473579
C       -0.91132561       0.90220522       0.91563759
C       -0.01476271      -0.02253852       1.78660255
H       -0.67934791      -0.69751639       2.42135241
H        0.63392994       0.61504881       2.47327442
C        0.01484550      -1.77751727      -0.01636693
H        0.67870853      -2.42144646      -0.68295456
H       -0.62264859      -2.45592969       0.64226336
C        1.78714474       0.01002794       0.00389507
H        2.44202412       0.67113390       0.66197326
H        2.45385902      -0.65136977      -0.64189061
C        0.91606151      -0.90478549       0.90901405
