170
Properties=species:S:1:pos:R:3 pbc="F F F"
C        1.54106278       3.21764943      -5.32149777
C        2.07870012       2.90490566      -3.95193444
C        1.33231000       2.09253235      -3.08450106
C        1.79733174       1.79733174      -1.79733174
C        3.02364338       2.30472099      -1.34678861
C        3.76817830       3.11825796      -2.21682478
C        3.30510830       3.42059514      -3.50479362
C        4.09767862       4.28348087      -4.33123866
C        4.73441861       5.03729121      -5.01394276
C        5.50363405       6.04351548      -5.87426638
C        6.06186718       6.87473517      -6.53682724
C        6.69783416       7.90244339      -7.30719141
C        8.05164710       8.17352217      -7.05730496
C        8.73715932       9.18388123      -7.75255738
C       10.18171010       9.44505652      -7.43121548
C        8.03423698       9.92349727      -8.71200606
C        6.68545898       9.65407750      -8.96977741
C        5.99976086       8.64582012      -8.27089845
C        4.55017800       8.42041786      -8.60493972
Br       8.85307867      11.32252900      -9.70245880
C        3.55547433       2.02658326       0.03096384
H        0.60097345       2.68964358      -5.51392406
H        2.25320597       2.90701670      -6.09283520
H        1.34356865       4.29040037      -5.41583082
H        0.37594410       1.69116215      -3.41439097
H        4.72017727       3.53102598      -1.88529283
H        8.57758021       7.59038472      -6.30206987
H       10.56394455       8.73149574      -6.69320298
H       10.30236177      10.44836377      -7.01014230
H       10.80104922       9.34359932      -8.32801730
H        6.15350393      10.23750036      -9.71954618
H        4.07382168       7.66739535      -7.97222107
H        4.45600108       8.08778427      -9.64396046
H        3.98898448       9.35232679      -8.47691542
H        4.54486372       2.47365807       0.17683821
H        3.66140953       0.94932578       0.19332891
H        2.88949648       2.45130090       0.78897077
C       -1.68169405      -5.41392892      -2.98458701
C       -2.14477009      -3.99535952      -2.79541061
C       -1.38411911      -3.11855306      -2.00667123
C       -1.79733174      -1.79733174      -1.79733174
C       -2.98089460      -1.31869159      -2.37556679
C       -3.74068259      -2.19875298      -3.16382547
C       -3.33389696      -3.52371522      -3.37288488
C       -4.17158703      -4.37981562      -4.16099549
C       -4.88673109      -5.11405150      -4.78486999
C       -5.81528775      -6.07910354      -5.52702462
C       -6.55724203      -6.86241676      -6.05377080
C       -7.46167061      -7.80922971      -6.63656864
C       -8.46113353      -7.32644356      -7.49489715
C       -9.40126054      -8.18904381      -8.08329358
C      -10.46265392      -7.61586830      -8.97945988
C       -9.31963894      -9.55684793      -7.79325344
C       -8.32163650     -10.04516963      -6.94250776
C       -7.38422057      -9.18084690      -6.35141197
C       -6.34458487      -9.78432959      -5.44662112
Br     -10.54471874     -10.81430428      -8.51904345
C       -3.47097028       0.08650488      -2.16662836
H       -0.71220326      -5.58703084      -2.50530699
H       -1.56391647      -5.63979355      -4.04934785
H       -2.39999297      -6.11017510      -2.53963178
H       -0.46334903      -3.47183864      -1.54630956
H       -4.66873362      -1.85148104      -3.61628143
H       -8.51036029      -6.25788898      -7.70178554
H      -10.32808805      -6.53818419      -9.12237104
H      -11.45387823      -7.76698673      -8.54000287
H      -10.42294690      -8.07950619      -9.97021277
H       -8.27121619     -11.11143140      -6.72790288
H       -5.69795822      -9.03969925      -4.97578063
H       -5.70476253     -10.46472003      -6.01826324
H       -6.83149710     -10.34518211      -4.64154747
H       -4.38732216       0.28038380      -2.73474521
H       -2.72276382       0.81026214      -2.50490472
H       -3.69911873       0.25683934      -1.10954723
C       -5.28957199       1.50318592       3.28745207
C       -3.93619823       2.05984703       2.93949495
C       -3.07001187       1.31444067       2.12489086
C       -1.79733174       1.79733174       1.79733174
C       -1.36049741       3.04090476       2.27375082
C       -2.22922988       3.78443064       3.08960052
C       -3.50261516       3.30360889       3.42427301
C       -4.32776368       4.09686908       4.28776538
C       -5.00831270       4.73494836       5.04239151
C       -5.86427402       5.50691077       6.05023111
C       -6.52181060       6.06831900       6.88329998
C       -7.28497004       6.70912220       7.91337671
C       -7.05541609       8.07208722       8.15497092
C       -7.74472869       8.76346850       9.16540074
C       -7.44561368      10.21826196       9.39410646
C       -8.67724956       8.05701966       9.93547109
C       -8.91474914       6.69897466       9.69559010
C       -8.22176937       6.00751294       8.68719713
C       -8.53283200       4.54812296       8.49458062
Br      -9.65704104       8.88352549      11.33749994
C        0.00180318       3.59255531       1.96034163
H       -5.47408213       0.55007107       2.78038789
H       -6.07958030       2.19520826       2.97826931
H       -5.36059226       1.32400445       4.36520314
H       -3.38932163       0.34490001       1.74727558
H       -1.90798906       4.74984805       3.47865898
H       -6.32088504       8.60078796       7.54836180
H       -6.72800784      10.60057036       8.66006507
H       -7.00859449      10.36524427      10.38702907
H       -8.35549349      10.81911281       9.29805955
H       -9.64369843       6.16435924      10.30249281
H       -7.90522258       4.06947396       7.73874155
H       -9.57582486       4.42879818       8.18312277
H       -8.37737415       4.00680761       9.43404493
H        0.13738053       4.59259618       2.38646793
H        0.14245434       3.68136839       0.87849235
H        0.77971103       2.94856268       2.38297497
C        3.36755999      -5.25055118       1.46209882
C        2.97919463      -3.91695655       2.03938904
C        2.16204071      -3.05227184       1.29503085
C        1.79733174      -1.79733174       1.79733174
C        2.23818768      -1.37729805       3.05966726
C        3.05668040      -2.24446148       3.80211916
C        3.42847132      -3.50000183       3.30202391
C        4.29261367      -4.32366680       4.09611768
C        5.04809515      -5.00175863       4.73579880
C        6.05762412      -5.85274775       5.51104404
C        6.89262552      -6.50455810       6.07624596
C        7.92514262      -7.25951908       6.72280726
C        8.13321006      -7.05413681       8.09512736
C        9.14345300      -7.73677572       8.79336921
C        9.33523028      -7.46409528      10.25865654
C        9.94788382      -8.63767431       8.08418218
C        9.74159568      -8.85106795       6.71665027
C        8.73331201      -8.16471917       6.01844825
C        8.57795925      -8.44848868       4.54908765
Br      11.35293063      -9.60535710       8.91977875
C        1.88426887      -0.03395076       3.63287412
H        2.88460461      -5.42522101       0.49471547
H        3.06091871      -6.06146123       2.13067794
H        4.45009514      -5.29516407       1.30454063
H        1.81170031      -3.35862192       0.31117499
H        3.41850385      -1.93585371       4.78213852
H        7.50011648      -6.34392178       8.62599655
H        8.57818564      -6.77033578      10.64012186
H       10.31529588      -7.00963990      10.43593206
H        9.24609823      -8.38841624      10.83815138
H       10.37498719      -9.55557119       6.17999209
H        7.81906123      -7.82674480       4.06763208
H        8.29142322      -9.49498122       4.40134136
H        9.52500617      -8.26187983       4.03134069
H        2.28638644       0.08911222       4.64440936
H        0.79804004       0.08210710       3.70147346
H        2.30356376       0.76621139       3.01447425
C       -0.00445707       0.01189536      -1.78238275
H       -0.66409135       0.67374010      -2.43557963
H        0.65740317      -0.63156657      -2.45157240
C       -0.90989263      -0.90692880      -0.91072765
C        0.90977584       0.90977584      -0.90977584
C       -0.00465871       1.77757030       0.00794375
H       -0.66225468       2.44313916      -0.64384735
H        0.64322798       2.43503045       0.67728295
C       -1.78241447       0.00034974      -0.00472694
H       -2.45427497      -0.65498947       0.64260836
H       -2.43311707       0.67328779      -0.65473579
C       -0.91132561       0.90220522       0.91563759
C       -0.01476271      -0.02253852       1.78660255
H       -0.67934791      -0.69751639       2.42135241
H        0.63392994       0.61504881       2.47327442
C        0.01484550      -1.77751727      -0.01636693
H        0.67870853      -2.42144646      -0.68295456
H       -0.62264859      -2.45592969       0.64226336
C        1.78714474       0.01002794       0.00389507
H        2.44202412       0.67113390       0.66197326
H        2.45385902      -0.65136977      -0.64189061
C        0.91606151      -0.90478549       0.90901405
