170
Properties=species:S:1:pos:R:3 pbc="F F F"
C        1.81528014       1.81528014      -1.81528014
H        2.73932751       2.09130668      -1.29112925
C        1.11545884       3.04494337      -2.46207782
C        1.86252267       2.69478950      -3.73027652
C        2.08853390       1.28332064      -3.25143835
C        3.05544980       3.54311950      -4.11966465
C        2.14195895       4.16288064      -5.20937633
H        1.67073273       5.09352691      -4.86360552
C        1.19743817       2.93915276      -5.06217834
C        2.71059801       4.29774929      -6.62515779
H        1.96076848       4.66882381      -7.33757385
C        3.50503257       3.09696301      -7.20208785
C        4.54353548       4.10977365      -7.63819873
C        4.01813852       5.13453107      -6.66355273
C        4.62592786       4.46783506      -9.10577024
C        5.90657145       3.58573538      -9.15910851
H        5.68541702       2.55573089      -9.46685613
C        6.00130734       3.72685475      -7.61216317
H        1.35250935       4.00857413      -2.00217717
H        0.02585445       2.95868267      -2.54661886
H        1.34861059       0.56440622      -3.62276644
H        3.08755423       0.86695192      -3.40928446
H        3.91890509       2.96914877      -4.46634115
H        3.41023686       4.25357628      -3.36597028
H        0.13068567       3.18077908      -5.03967460
H        1.35255987       2.13382271      -5.78878287
H        2.99195962       2.55514314      -8.00312817
H        3.87357747       2.35795760      -6.48548911
H        4.57778710       5.17828046      -5.72247615
H        3.90123248       6.15459564      -7.04130418
H        4.79601344       5.53388344      -9.29689847
H        3.80248622       4.12901854      -9.74120618
H        6.25626637       2.80736362      -7.07756951
H        6.66441303       4.52763281      -7.26396769
C        7.01075811       4.12989382      -9.90627878
C        7.93551444       4.58562651     -10.53203388
Br       9.43076721       5.32250773     -11.54382695
C       -1.81528014      -1.81528014      -1.81528014
H       -1.26575722      -2.15236381      -2.70364240
C       -3.21393717      -1.23561303      -2.17292982
C       -3.76108290      -2.62065473      -1.90585106
C       -2.54428198      -2.98507441      -1.09393651
C       -4.14460392      -3.48310378      -3.09052624
C       -5.61896003      -3.17722793      -2.71802797
H       -6.01398238      -2.32517437      -3.28870841
C       -5.13667731      -2.75987289      -1.30221907
C       -6.60346373      -4.34995549      -2.68008587
H       -7.59758594      -4.04311137      -2.32646884
C       -6.13494004      -5.66502699      -2.00411641
C       -6.69433667      -6.38115362      -3.21601757
C       -6.67293912      -5.11194297      -4.03134023
C       -7.99729082      -7.13536249      -3.06687985
C       -7.14353599      -8.43615920      -3.07172015
H       -6.88672727      -8.76474512      -2.05653164
C       -5.99646383      -7.61499398      -3.72886745
H       -3.31176652      -0.85708080      -3.19441334
H       -3.58136898      -0.46858292      -1.48120407
H       -2.67369901      -2.84831274      -0.01377149
H       -2.11714950      -3.97644173      -1.27019939
H       -3.82022260      -4.52401655      -3.01015585
H       -3.83892565      -3.11542125      -4.07543652
H       -5.59410558      -1.84655506      -0.91047870
H       -5.20580888      -3.53673472      -0.53262184
H       -6.62049483      -5.88241498      -1.04732112
H       -5.05795911      -5.79327211      -1.86579296
H       -5.79098407      -5.01341790      -4.67414173
H       -7.56189120      -4.90181626      -4.63342483
H       -8.67536132      -7.02959672      -3.92183730
H       -8.56598484      -6.95715869      -2.14956741
H       -4.99735555      -7.81334541      -3.33049853
H       -5.95447471      -7.67889422      -4.82264459
C       -7.66476385      -9.52404228      -3.85812458
C       -8.10129218     -10.43514435      -4.51673829
Br      -8.80712158     -11.90831935      -5.58166096
C       -1.81528014       1.81528014       1.81528014
H       -1.29015296       2.09349405       2.73811643
C       -3.24962123       1.28045565       2.09240315
C       -3.72946593       2.69660562       1.86151714
C       -2.46638261       3.04223478       1.11467552
C       -4.12718110       3.52627894       3.06477391
C       -5.59580750       3.29708323       2.62132520
H       -6.04791288       2.44009119       3.13986108
C       -5.07211771       2.91688364       1.20976791
C       -6.53028533       4.51031065       2.59290912
H       -7.52029992       4.25942682       2.18743940
C       -5.98194074       5.83069754       1.99144515
C       -6.56221188       6.52051771       3.20877827
C       -6.62541330       5.21998231       3.97082671
C       -7.82669324       7.33360175       3.03923817
C       -6.92263535       8.59654418       3.13223581
H       -6.61092665       8.95442900       2.14264838
C       -5.83757219       7.70281845       3.79993462
H       -3.40487030       0.86584602       3.09254433
H       -3.61829812       0.55758976       1.35526810
H       -2.55613108       2.95419829       0.02545387
H       -2.00771688       4.00715825       1.34891548
H       -3.75844738       4.55518180       3.04076582
H       -3.87763959       3.10718330       4.04496052
H       -5.54895397       2.03974076       0.76244461
H       -5.07812519       3.72604828       0.47099198
H       -6.41822800       6.10610538       1.02589755
H       -4.89587974       5.91947078       1.90167366
H       -5.77558452       5.05929138       4.64366781
H       -7.54630936       5.02313363       4.52768930
H       -8.54340683       7.22207832       3.86131019
H       -8.36341395       7.21595629       2.09334070
H       -4.81564346       7.87519952       3.45035652
H       -5.83858068       7.72120647       4.89622638
C       -7.43226999       9.67290020       3.94176052
C       -7.85908901      10.57434836       4.61973746
Br      -8.54921925      12.03191381       5.71596883
C        1.81528014      -1.81528014       1.81528014
H        2.76773112      -2.03714920       1.31688311
C        1.13949747      -3.09345178       2.38953078
C        1.82575755      -2.76464173       3.69718941
C        2.01532686      -1.32865763       3.27930841
C        3.03501332      -3.58290137       4.10031926
C        2.10644818      -4.27668704       5.13108070
H        1.68392683      -5.21014830       4.73379003
C        1.12210912      -3.08366307       4.99299708
C        2.62756771      -4.44436930       6.56156809
H        1.86679929      -4.86947595       7.23089090
C        3.35410941      -3.23809570       7.21187832
C        4.41369867      -4.22803896       7.64977023
C        3.96369343      -5.23355408       6.61897481
C        4.45583861      -4.63838106       9.10531349
C        5.69920499      -3.71263461       9.23957575
H        5.42792618      -2.70386712       9.57621073
C        5.85583254      -3.79127187       7.69322086
H        1.42969938      -4.02957096       1.90399032
H        0.04503644      -3.05043346       2.43568608
H        1.23550168      -0.65196416       3.64831741
H        2.99134230      -0.88228083       3.49016749
H        3.86274457      -2.99128694       4.50036349
H        3.44392230      -4.25071722       3.33514390
H        0.06685514      -3.36316767       4.92111654
H        1.21978293      -2.30140037       5.75398215
H        2.79181284      -2.74627907       8.01213902
H        3.72028919      -2.45937711       6.53735788
H        4.55869279      -5.22096466       5.69888626
H        3.87189820      -6.27084025       6.95439384
H        4.65921837      -5.70398009       9.26359689
H        3.59738984      -4.35435590       9.72096520
H        6.09505658      -2.84339934       7.20274357
H        6.56121246      -4.55340783       7.34139323
C        6.79517520      -4.24400008      10.00775543
C        7.71305025      -4.68901866      10.65110592
Br       9.19717658      -5.40857606      11.69134925
C       -0.00445707       0.01189536      -1.78238275
H       -0.66409135       0.67374010      -2.43557963
H        0.65740317      -0.63156657      -2.45157240
C       -0.90989263      -0.90692880      -0.91072765
C        0.90977584       0.90977584      -0.90977584
C       -0.00465871       1.77757030       0.00794375
H       -0.66225468       2.44313916      -0.64384735
H        0.64322798       2.43503045       0.67728295
C       -1.78241447       0.00034974      -0.00472694
H       -2.45427497      -0.65498947       0.64260836
H       -2.43311707       0.67328779      -0.65473579
C       -0.91132561       0.90220522       0.91563759
C       -0.01476271      -0.02253852       1.78660255
H       -0.67934791      -0.69751639       2.42135241
H        0.63392994       0.61504881       2.47327442
C        0.01484550      -1.77751727      -0.01636693
H        0.67870853      -2.42144646      -0.68295456
H       -0.62264859      -2.45592969       0.64226336
C        1.78714474       0.01002794       0.00389507
H        2.44202412       0.67113390       0.66197326
H        2.45385902      -0.65136977      -0.64189061
C        0.91606151      -0.90478549       0.90901405
