141
Properties=species:S:1:pos:R:3 pbc="F F F"
C        0.00000000       0.00000000       0.00000000
C        0.90537611       0.90537611      -0.90537611
H        1.82942349       1.18140265      -0.38122522
C        0.20555481       2.13503934      -1.55217380
C        0.95261865       1.78488547      -2.82037249
C        1.17862988       0.37341662      -2.34153433
C        2.14554577       2.63321548      -3.20976063
C        1.23205493       3.25297662      -4.29947231
H        0.76082870       4.18362289      -3.95370150
C        0.28753414       2.02924873      -4.15227432
C        1.80069399       3.38784527      -5.71525377
H        1.05086445       3.75891979      -6.42766983
C        2.59512854       2.18705899      -6.29218383
C        3.63363145       3.19986963      -6.72829471
C        3.10823450       4.22462705      -5.75364870
C        3.71602384       3.55793104      -8.19586621
C        4.99666743       2.67583136      -8.24920448
H        4.77551299       1.64582686      -8.55695210
C        5.09140332       2.81695073      -6.70225915
Br       6.47744093       3.40557700      -9.25119987
H        0.44260532       3.09867011      -1.09227315
H       -0.88404958       2.04877865      -1.63671484
H        0.43870657      -0.34549781      -2.71286241
H        2.17765021      -0.04295210      -2.49938044
H        3.00900106       2.05924475      -3.55643712
H        2.50033284       3.34367225      -2.45606625
H       -0.77921835       2.27087505      -4.12977057
H        0.44265585       1.22391868      -4.87887885
H        2.08205559       1.64523912      -7.09322414
H        2.96367344       1.44805357      -5.57558509
H        3.66788307       4.26837644      -4.81257213
H        2.99132845       5.24469161      -6.13140015
H        3.88610941       4.62397941      -8.38699444
H        2.89258220       3.21911451      -8.83130215
H        5.34636234       1.89745960      -6.16766548
H        5.75450901       3.61772879      -6.35406366
C       -0.90537611      -0.90537611      -0.90537611
H       -0.30296060      -1.65592133      -1.43316943
C       -1.87876147      -0.15493706      -1.85906942
C       -2.92064324      -1.17694354      -1.46028983
C       -2.15082501      -1.52968796      -0.21306786
C       -3.26946747      -2.27121267      -2.44784174
C       -4.58926110      -1.49598610      -2.69925666
H       -4.50768248      -0.82483411      -3.56563650
C       -4.36350187      -0.74857531      -1.35698002
C       -5.89534471      -2.29595324      -2.71249508
H       -6.77603531      -1.64677859      -2.81464017
C       -6.09749094      -3.36748269      -1.60939773
C       -6.54769210      -4.29486393      -2.71923977
C       -5.88373283      -3.43592649      -3.76685093
C       -8.02429295      -4.59818039      -2.84734775
C       -7.70266162      -5.98952276      -2.22951889
H       -7.83900623      -5.99873535      -1.14055037
C       -6.21638145      -5.76282900      -2.63140274
Br      -8.57610524      -7.49867823      -3.05943433
H       -1.57982900      -0.14261718      -2.91110241
H       -2.11817930       0.87034217      -1.55360678
H       -2.49111311      -0.99896903       0.68401097
H       -2.06447348      -2.59389039       0.02428533
H       -3.35749684      -3.26542040      -2.00176568
H       -2.61877676      -2.35715785      -3.32413673
H       -4.55832010       0.32742231      -1.39052948
H       -4.88836165      -1.16642442      -0.49066731
H       -6.85157396      -3.11036509      -0.85857980
H       -5.20327488      -3.70537175      -1.07866547
H       -4.89132102      -3.79092161      -4.06658900
H       -6.46335819      -3.23202876      -4.67203326
H       -8.38613706      -4.62917773      -3.88176848
H       -8.70640226      -3.97638305      -2.26021356
H       -5.48204835      -6.05435881      -1.87508026
H       -5.92642519      -6.21050243      -3.58937383
C       -0.90537611       0.90537611       0.90537611
H       -1.95623316       0.84079131       0.59502689
C       -0.43316215       2.37703689       1.08256891
C       -0.78816201       2.22437147       2.54534312
C       -0.73162885       0.72157491       2.44037707
C       -2.05534553       2.88286938       3.05030696
C       -1.13228836       3.93791207       3.71430343
H       -1.00049931       4.82228262       3.07537115
C        0.04765561       2.93752591       3.57918689
C       -1.41508948       4.31779914       5.17090441
H       -0.65871981       5.00651338       5.57222088
C       -1.73436755       3.17273270       6.16727110
C       -2.88911759       4.03013038       6.64254782
C       -2.85905639       4.85061181       5.37684205
C       -2.76060289       4.73336151       7.97585669
C       -3.72855002       3.65346845       8.53968480
H       -3.18883591       2.80673610       8.98271995
C       -4.17040122       3.36449052       7.07572144
Br      -5.11146966       4.30083538       9.72191276
H       -1.00164547       3.11826925       0.51363385
H        0.63479847       2.54001629       0.89622608
H        0.22961007       0.29084153       2.74483972
H       -1.53375755       0.16587358       2.93444741
H       -2.64996768       2.25527790       3.71943735
H       -2.72896807       3.28465448       2.28644879
H        0.98682521       3.37739046       3.23086202
H        0.25925983       2.33509296       4.46962025
H       -0.94562242       2.97471996       6.90017648
H       -2.03597017       2.21353098       5.73781096
H       -3.59063821       4.53263196       4.62556146
H       -2.93726101       5.93545640       5.49470281
H       -3.15969812       5.75443493       7.98295022
H       -1.76562473       4.74713848       8.43023567
H       -4.28067285       2.30554077       6.82527380
H       -5.07574428       3.89417824       6.75637894
C        0.90537611      -0.90537611       0.90537611
H        1.32416773      -0.32812893       1.73975470
C        1.98915899      -1.73960911       0.16399986
C        1.60079466      -2.88848798       1.06859397
C        0.27189194      -2.24624710       1.37544179
C        2.52819046      -3.24997197       2.21035945
C        2.94417194      -4.47939517       1.36093674
H        3.84913539      -4.27824532       0.77077238
C        1.64813572      -4.29525715       0.52566432
C        3.00357087      -5.84166163       2.05856052
H        3.22587880      -6.65623762       1.35533764
C        1.84300502      -6.21314471       3.01822164
C        2.91278733      -6.65254268       3.99646579
C        3.96450534      -5.84363245       3.27837245
C        3.13770135      -8.13509149       4.19702825
C        2.39255616      -7.97554377       5.55360334
H        1.32075666      -8.19389884       5.46363645
C        2.68778702      -6.44966804       5.47315813
Br       3.17481154      -8.90413332       7.05527294
H        3.01122122      -1.36220373       0.26012363
H        1.78242060      -1.91692872      -0.89790542
H       -0.55185884      -2.60876592       0.74916409
H       -0.05127263      -2.26514750       2.42020366
H        2.01709889      -3.45220016       3.15538389
H        3.33949576      -2.54425216       2.41632342
H        1.77849646      -4.39855558      -0.55562477
H        0.79850154      -4.91627394       0.83067789
H        1.17774090      -6.99819157       2.64458639
H        1.21712851      -5.39204426       3.37813934
H        4.15465814      -4.86372632       3.73044717
H        4.92674638      -6.33478925       3.10588458
H        4.19290345      -8.41923480       4.28494502
H        2.65673096      -8.80651703       3.47975088
H        1.85425574      -5.80068716       5.75654452
H        3.58242068      -6.12580335       6.01807742
