186
Properties=species:S:1:pos:R:3 pbc="F F F"
C        1.81489507       1.81489507      -1.81489507
H        1.35554978       2.80073150      -1.96434957
C        2.28851081       1.17778279      -3.15284458
C        3.64041104       1.79442192      -2.86420817
C        3.31219159       1.91793881      -1.39985032
C        4.04378038       3.02548504      -3.64812427
C        4.90639249       2.06137499      -4.52099923
H        4.33156806       1.66716837      -5.37170847
C        4.88802936       1.07376295      -3.31404208
C        6.19716403       2.55946389      -4.93566193
C        7.24226200       2.98255078      -5.34774207
C        8.53677900       3.54273903      -5.94846214
C        9.50552307       4.00866474      -6.47876731
C       10.62225336       4.60829732      -7.17417176
H       10.30971716       5.47809099      -7.77028242
C       11.51676279       3.63829155      -8.00719404
C       12.69239088       4.45184372      -7.50862516
C       11.88919568       4.92609902      -6.32221637
C       13.29942986       5.47516360      -8.44404363
C       14.46824237       4.46667070      -8.64160996
H       14.30808715       3.81593836      -9.51122072
C       14.02844419       3.78583109      -7.31145450
H        1.76692183       1.53259824      -4.04666183
H        2.29056913       0.08141184      -3.16326530
H        3.67661675       1.08186604      -0.79129682
H        3.59452951       2.85481578      -0.91144009
H        4.62142893       3.75581711      -3.06774915
H        3.24768109       3.55453634      -4.17988176
H        4.77717893       0.01745186      -3.57504995
H        5.73551442       1.17762624      -2.62516945
H       11.33593352       3.64328169      -9.08601623
H       11.51171590       2.59844186      -7.65714746
H       12.00640363       4.30291560      -5.42696217
H       12.00944667       5.97487053      -6.03611486
H       13.58223719       6.41493705      -7.95514098
H       12.73210204       5.71179949      -9.34903396
H       14.03783353       2.69232566      -7.32518913
H       14.56832351       4.12941869      -6.42113042
C       15.79069953       5.03643715      -8.65016912
C       16.89825740       5.51361654      -8.65733742
Br      18.68908480       6.28517527      -8.66892795
C       -1.81489507      -1.81489507      -1.81489507
H       -2.34974346      -2.55968074      -1.21120665
C       -1.11683646      -2.45123656      -3.05106516
C       -2.37004613      -2.10350345      -3.82549155
C       -2.75838103      -1.06822410      -2.80337560
C       -3.33306639      -3.22254302      -4.16178028
C       -2.70045279      -3.20006481      -5.58824911
H       -1.83705482      -3.87797389      -5.65541618
C       -2.25401557      -1.73677345      -5.28504537
C       -3.61177492      -3.38751014      -6.69300478
C       -4.34246259      -3.61131887      -7.61877339
C       -5.24942078      -3.97996561      -8.79859379
C       -5.94158619      -4.34465324      -9.70671569
C       -6.76483900      -4.86432103     -10.77556241
H       -7.14006606      -5.87226986     -10.54575464
C       -6.15520297      -4.79664892     -12.21039650
C       -7.54725961      -4.42767919     -12.67792097
C       -7.90473354      -3.93628840     -11.29648913
C       -8.39386228      -5.50655033     -13.31822448
C       -8.08135553      -4.81709078     -14.67807672
H       -7.20546222      -5.25811181     -15.17167220
C       -7.71705326      -3.53214287     -13.87653364
H       -0.87809806      -3.51442701      -2.95365683
H       -0.21912783      -1.92286960      -3.39324884
H       -2.43988365      -0.05073111      -3.05916485
H       -3.81114327      -1.04115015      -2.50849195
H       -4.38969498      -2.92898500      -4.12631522
H       -3.21314173      -4.15919931      -3.60975814
H       -1.25714269      -1.46722395      -5.64531411
H       -2.96411021      -0.96563033      -5.60856957
H       -5.74079613      -5.73560298     -12.58883233
H       -5.41046164      -4.00366736     -12.35317623
H       -7.72691781      -2.86437165     -11.14499195
H       -8.90772269      -4.17877760     -10.93393178
H       -9.44937064      -5.48034727     -13.02259731
H       -8.03280401      -6.53505651     -13.22507497
H       -6.82425712      -3.00564158     -14.22544962
H       -8.53413209      -2.80780808     -13.77693245
C       -9.19095904      -4.69819146     -15.58815529
C      -10.12025199      -4.59861329     -16.35034609
Br     -11.62284007      -4.43760380     -17.58274415
C       -1.81489507       1.81489507       1.81489507
H       -2.16737955       1.25946133       2.69378998
C       -2.97069781       2.56052140       1.08791898
C       -2.60484151       3.76336316       1.93083646
C       -1.22993662       3.20781192       2.19223217
C       -3.50441378       4.11644065       3.09653527
C       -4.10537820       5.21649671       2.16689180
H       -4.95502151       4.83038192       1.58504147
C       -2.77754228       5.14651680       1.35177531
C       -4.41930217       6.47932782       2.79365985
C       -4.75126651       7.51060121       3.31068713
C       -5.25635536       8.79675885       3.97486596
C       -5.72046113       9.76522682       4.50726717
C       -6.34720696      10.88607056       5.17144491
H       -7.10137554      10.55599240       5.90072262
C       -6.90410315      12.01223264       4.24591259
C       -6.38448204      12.98559947       5.28277825
C       -5.39559171      11.96042437       5.78149498
C       -7.37538465      13.58772029       6.25553216
C       -7.26812541      14.89326270       5.41513492
H       -8.04459018      14.94963348       4.64102256
C       -5.91956236      14.35216143       4.85400599
H       -3.96713992       2.13627627       1.24276571
H       -2.81757262       2.70568345       0.01199019
H       -0.46188336       3.58255660       1.50533966
H       -0.85398525       3.29097520       3.21582494
H       -2.96943886       4.50212422       3.97343211
H       -4.20725873       3.34670832       3.42813213
H       -2.89063485       5.21308146       0.26596443
H       -2.00816495       5.86151890       1.66862626
H       -7.98588332      11.99476766       4.08458045
H       -6.40689819      12.08951264       3.27089440
H       -4.41004832      12.02265718       5.30357590
H       -5.25556167      11.90031733       6.86455306
H       -6.99932070      13.67089646       7.28209806
H       -8.37110979      13.13555706       6.28626864
H       -5.76916559      14.50463370       3.78154902
H       -5.02806434      14.70466078       5.38614750
C       -7.19047216      16.11749713       6.16933651
C       -7.12543756      17.14279346       6.80098034
Br      -7.02028212      18.80061092       7.82229499
C        1.81489507      -1.81489507       1.81489507
H        2.82623661      -1.39604847       1.89834577
C        1.83297716      -3.32887136       1.45728966
C        1.76257347      -3.58983999       2.94662767
C        1.22220533      -2.20746039       3.20031500
C        3.02438712      -4.04203703       3.65096554
C        2.42301241      -5.48062409       3.58513021
H        2.71550501      -5.99618568       2.65875420
C        1.02306971      -4.80753531       3.44522937
C        2.63248973      -6.31311924       4.74668088
C        2.85668884      -7.04241017       5.67345584
C        3.20918743      -8.00714391       6.81164884
C        3.55145293      -8.77953219       7.66197000
C        4.03888813      -9.71810812       8.64772619
H        5.13751019      -9.76892065       8.65165973
C        3.40267249     -11.14263142       8.61694447
C        3.43909041     -11.08427481      10.12949455
C        3.46921286      -9.57585637      10.09244184
C        4.54726165     -11.82604633      10.84532911
C        3.47297562     -12.89038820      11.21315921
H        3.43985148     -13.71091175      10.48448299
C        2.38833686     -11.80941128      10.92798163
H        2.73317860      -3.67328201       0.93972129
H        0.95583307      -3.67903246       0.90038073
H        0.12827527      -2.16244283       3.25906152
H        1.64057829      -1.66648366       4.05372343
H        3.13828142      -3.64086530       4.66584848
H        3.96664820      -3.90205932       3.11339167
H        0.34016081      -5.28959735       2.73992258
H        0.49429453      -4.65047557       4.39354001
H        4.00932233     -11.91715684       8.13875227
H        2.39061394     -11.18171311       8.19497817
H        2.47811843      -9.10887110      10.14929188
H        4.13042606      -9.08071687      10.80928913
H        4.96756886     -11.28401114      11.70073522
H        5.37228866     -12.19300451      10.22764231
H        1.51289759     -12.16506036      10.37739036
H        2.04592776     -11.26002007      11.81292479
C        3.52455728     -13.39003760      12.56271092
C        3.56775692     -13.80849397      13.69296047
Br       3.63760708     -14.48510253      15.52047841
C       -0.00445707       0.01189536      -1.78238275
H       -0.66409135       0.67374010      -2.43557963
H        0.65740317      -0.63156657      -2.45157240
C       -0.90989263      -0.90692880      -0.91072765
C        0.90977584       0.90977584      -0.90977584
C       -0.00465871       1.77757030       0.00794375
H       -0.66225468       2.44313916      -0.64384735
H        0.64322798       2.43503045       0.67728295
C       -1.78241447       0.00034974      -0.00472694
H       -2.45427497      -0.65498947       0.64260836
H       -2.43311707       0.67328779      -0.65473579
C       -0.91132561       0.90220522       0.91563759
C       -0.01476271      -0.02253852       1.78660255
H       -0.67934791      -0.69751639       2.42135241
H        0.63392994       0.61504881       2.47327442
C        0.01484550      -1.77751727      -0.01636693
H        0.67870853      -2.42144646      -0.68295456
H       -0.62264859      -2.45592969       0.64226336
C        1.78714474       0.01002794       0.00389507
H        2.44202412       0.67113390       0.66197326
H        2.45385902      -0.65136977      -0.64189061
C        0.91606151      -0.90478549       0.90901405
