157
Properties=species:S:1:pos:R:3 pbc="F F F"
C        0.00000000       0.00000000       0.00000000
C        0.90499105       0.90499105      -0.90499105
H        0.44564576       1.89082748      -1.05444555
C        1.37860678       0.26787877      -2.24294056
C        2.73050701       0.88451789      -1.95430415
C        2.40228757       1.00803478      -0.48994630
C        3.13387635       2.11558102      -2.73822024
C        3.99648846       1.15147096      -3.61109521
H        3.42166403       0.75726434      -4.46180445
C        3.97812533       0.16385893      -2.40413806
C        5.28726001       1.64955986      -4.02575790
C        6.33235798       2.07264676      -4.43783805
C        7.62687498       2.63283501      -5.03855812
C        8.59561905       3.09876072      -5.56886328
C        9.71234933       3.69839330      -6.26426773
H        9.39981313       4.56818696      -6.86037840
C       10.60685877       2.72838752      -7.09729002
C       11.78248686       3.54193970      -6.59872113
C       10.97929166       4.01619500      -5.41231234
C       12.38952583       4.56525957      -7.53413961
C       13.55833834       3.55676668      -7.73170594
H       13.39818312       2.90603434      -8.60131669
C       13.11854017       2.87592706      -6.40155047
Br      15.33103388       4.32051348      -7.74317912
H        0.85701781       0.62269421      -3.13675780
H        1.38066510      -0.82849219      -2.25336128
H        2.76671272       0.17196202       0.11860720
H        2.68462549       1.94491175      -0.00153607
H        3.71152491       2.84591309      -2.15784513
H        2.33777707       2.64463231      -3.26997773
H        3.86727490      -0.89245216      -2.66514593
H        4.82561040       0.26772221      -1.71526543
H       10.42602949       2.73337766      -8.17611220
H       10.60181188       1.68853784      -6.74724344
H       11.09649961       3.39301158      -4.51705815
H       11.09954265       5.06496651      -5.12621083
H       12.67233316       5.50503302      -7.04523696
H       11.82219802       4.80189546      -8.43912993
H       13.12792950       1.78242163      -6.41528510
H       13.65841949       3.21951466      -5.51122639
C       -0.90499105      -0.90499105      -0.90499105
H       -0.37731813      -1.82493605      -1.18866461
C       -1.55965309      -0.20138791      -2.12838511
C       -2.81792376      -0.96855692      -1.78284837
C       -2.34037478      -1.18810041      -0.37179346
C       -3.18523490      -2.15908012      -2.64336259
C       -4.20944616      -1.20969663      -3.33991185
H       -3.75627363      -0.68860897      -4.19585022
C       -4.16162851      -0.33488073      -2.04961307
C       -5.48538697      -1.79159671      -3.68559409
C       -6.52410129      -2.27566152      -4.04307997
C       -7.81624600      -2.90313247      -4.57888963
C       -8.78689929      -3.41190855      -5.06443520
C       -9.90844528      -4.05300907      -5.71355601
H       -9.57962046      -4.83279704      -6.41596099
C      -10.96095443      -3.10436161      -6.36722027
C      -12.00689432      -4.06821029      -5.84804308
C      -11.05441160      -4.56522899      -4.78815841
C      -12.60901434      -5.05909682      -6.82081385
C      -13.87555626      -4.15462619      -6.81662851
H      -13.85788297      -3.41755203      -7.63009915
C      -13.37105132      -3.55413082      -5.47083557
Br     -15.56704192      -5.08185540      -6.74582917
H       -1.09756402      -0.42425979      -3.09464602
H       -1.65909426       0.88632045      -2.03276038
H       -2.71647935      -0.44784495       0.34425676
H       -2.49080434      -2.18714303       0.04687407
H       -3.63773579      -2.98992159      -2.08762574
H       -2.40073430      -2.56004603      -3.29160678
H       -4.16978087       0.74603578      -2.21622359
H       -4.92627005      -0.58018582      -1.30214217
H      -10.88531579      -2.99701089      -7.45319267
H      -11.01360467      -2.10369844      -5.92029004
H      -11.13903622      -4.03739781      -3.83013530
H      -11.05382129      -5.64178367      -4.59511503
H      -12.75960714      -6.06109972      -6.40189629
H      -12.11304629      -5.15940512      -7.79077200
H      -13.47782856      -2.46967939      -5.37812829
H      -13.79020629      -4.02514413      -4.57381012
C       -0.90499105       0.90499105       0.90499105
H       -1.34705644       0.32106156       1.72280078
C       -1.96348156       1.76708887       0.15885568
C       -1.58048136       2.88996024       1.09888746
C       -0.26191650       2.23134330       1.40700885
C       -2.53067807       3.22897986       2.22801969
C       -3.00175156       4.42040901       1.33689406
H       -3.83376032       4.12652462       0.68044788
C       -1.63050633       4.31415111       0.60146487
C       -3.27812384       5.66038273       2.02407120
C       -3.57945826       6.67758581       2.58579871
C       -4.04724272       7.95093204       3.30009335
C       -4.48502248       8.91322755       3.86499301
C       -5.08406306      10.02982220       4.56112510
H       -5.90274765       9.70557633       5.22005451
C       -5.50991845      11.24413947       3.67847839
C       -5.00036348      12.11662851       4.80615570
C       -4.11034142      11.00086169       5.29659588
C       -6.01380052      12.72140321       5.75372129
C       -5.77273336      14.06604178       5.00803582
H       -6.49237354      14.21985465       4.19330596
C       -4.42608182      13.47369844       4.49623745
Br      -5.63464910      15.63211745       6.12795993
H       -2.99189659       1.39982930       0.22474393
H       -1.73220463       1.96735018      -0.89402062
H        0.57056804       2.59659055       0.79404503
H        0.05110509       2.22731509       2.45486331
H       -2.03128220       3.52488361       3.15911731
H       -3.29922108       2.48775088       2.46541515
H       -1.66853986       4.45402761      -0.48259881
H       -0.84116586       4.95699293       1.01043924
H       -6.57797731      11.30687146       3.45067059
H       -4.94662776      11.34827772       2.74268767
H       -3.09387142      11.02796316       4.88473475
H       -4.04490486      10.86583480       6.37998033
H       -5.70085919      12.71719919       6.80454476
H       -7.03514040      12.33386010       5.69422291
H       -4.19730214      13.68120638       3.44712771
H       -3.55120549      13.73441367       5.10354138
C        0.90499105      -0.90499105       0.90499105
H        1.85305315      -1.13592245       0.40194319
C        0.22423650      -2.17611235       1.48907726
C        0.93268993      -1.85022585       2.78641328
C        1.11675731      -0.41552504       2.36798630
C        2.14038011      -2.68070527       3.16659224
C        1.18147903      -3.44813013       4.12944547
H        0.70893823      -4.30476072       3.62703387
C        0.26176647      -2.18899252       4.09536333
C        1.72986354      -3.81981494       5.41289929
C        2.18944628      -4.19799873       6.45539776
C        2.78980063      -4.75853270       7.74993477
C        3.28123137      -5.26120549       8.72080619
C        3.90548055      -5.92809947       9.84143033
H        4.72197313      -6.58957129       9.51683407
C        2.94471712      -6.65371726      10.83410193
C        3.85074125      -6.13954060      11.93286583
C        4.34186689      -5.02806196      11.03787014
C        4.85483320      -7.09794506      12.53614676
C        3.90619837      -7.17292922      13.76768336
H        3.20084089      -8.01097741      13.69371586
C        3.27468954      -5.83167534      13.28965282
Br       4.76920727      -7.13173929      15.49377992
H        0.49907292      -3.11603584       1.00136106
H       -0.86912177      -2.12311777       1.55153819
H        0.33755235       0.25923490       2.74175009
H        2.09361204       0.03267858       2.57013984
H        2.93340094      -2.11279838       3.66908381
H        2.59281111      -3.28474203       2.37483397
H       -0.81184395      -2.39426479       4.05754783
H        0.45178743      -1.46205832       4.89475229
H        2.88040563      -7.73928483      10.71582889
H        1.92695531      -6.24504311      10.86559473
H        3.77625211      -4.09327815      11.13703908
H        5.40987291      -4.79682740      11.08401968
H        5.83462921      -6.64939212      12.73858181
H        5.00861425      -8.04468145      12.00992772
H        2.18443003      -5.78174967      13.35945654
H        3.69691555      -4.93454013      13.75770486
