165
Properties=species:S:1:pos:R:3 pbc="F F F"
C        0.00000000       0.00000000       0.00000000
C        0.90499105       0.90499105      -0.90499105
H        0.44564576       1.89082748      -1.05444555
C        1.37860678       0.26787877      -2.24294056
C        2.73050701       0.88451789      -1.95430415
C        2.40228757       1.00803478      -0.48994630
C        3.13387635       2.11558102      -2.73822024
C        3.99648846       1.15147096      -3.61109521
H        3.42166403       0.75726434      -4.46180445
C        3.97812533       0.16385893      -2.40413806
C        5.28726001       1.64955986      -4.02575790
C        6.33235798       2.07264676      -4.43783805
C        7.62687498       2.63283501      -5.03855812
C        8.59561905       3.09876072      -5.56886328
C        9.71234933       3.69839330      -6.26426773
H        9.39981313       4.56818696      -6.86037840
C       10.60685877       2.72838752      -7.09729002
C       11.78248686       3.54193970      -6.59872113
C       10.97929166       4.01619500      -5.41231234
C       12.38952583       4.56525957      -7.53413961
C       13.55833834       3.55676668      -7.73170594
H       13.39818312       2.90603434      -8.60131669
C       13.11854017       2.87592706      -6.40155047
H        0.85701781       0.62269421      -3.13675780
H        1.38066510      -0.82849219      -2.25336128
H        2.76671272       0.17196202       0.11860720
H        2.68462549       1.94491175      -0.00153607
H        3.71152491       2.84591309      -2.15784513
H        2.33777707       2.64463231      -3.26997773
H        3.86727490      -0.89245216      -2.66514593
H        4.82561040       0.26772221      -1.71526543
H       10.42602949       2.73337766      -8.17611220
H       10.60181188       1.68853784      -6.74724344
H       11.09649961       3.39301158      -4.51705815
H       11.09954265       5.06496651      -5.12621083
H       12.67233316       5.50503302      -7.04523696
H       11.82219802       4.80189546      -8.43912993
H       13.12792950       1.78242163      -6.41528510
H       13.65841949       3.21951466      -5.51122639
C       14.88079550       4.12653312      -7.74026510
C       15.98835337       4.60371252      -7.74743340
Br      17.77918078       5.37527124      -7.75902393
C       -0.90499105      -0.90499105      -0.90499105
H       -0.43422633      -1.88215092      -1.07454153
C       -1.40601724      -0.25617064      -2.22723824
C       -2.74511368      -0.89558092      -1.92863446
C       -2.39477212      -1.03468234      -0.47081419
C       -3.14238858      -2.12123513      -2.72405390
C       -4.03034172      -1.15733601      -3.57137690
H       -3.47296453      -0.74343097      -4.42433732
C       -4.00872363      -0.18630627      -2.35109242
C       -5.31979344      -1.66766277      -3.97512156
C       -6.36461743      -2.09960143      -4.37862392
C       -7.65955964      -2.66950150      -4.96920697
C       -8.62910715      -3.14157198      -5.49256392
C       -9.74707719      -3.74711604      -6.18081713
H       -9.43094120      -4.60414784      -6.79328946
C      -10.66644541      -2.77831821      -6.98777269
C      -11.82365127      -3.61503383      -6.48446259
C      -10.99747521      -4.09432861      -5.31599518
C      -12.42954111      -4.63374377      -7.42564013
C      -13.61480238      -3.63906823      -7.59294035
H      -13.47581722      -2.97422614      -8.45549080
C      -13.16587584      -2.97055656      -6.25958530
H       -0.89213628      -0.59129309      -3.13304045
H       -1.42334406       0.84010371      -2.22229384
H       -2.76214788      -0.21226233       0.15434267
H       -2.65730115      -1.98206457       0.00829241
H       -3.70173401      -2.86751131      -2.14603781
H       -2.34658286      -2.63171449      -3.27408977
H       -3.91611582       0.87495172      -2.59880457
H       -4.84497736      -0.31150530      -1.65211537
H      -10.50067147      -2.76589707      -8.06895082
H      -10.67084698      -1.74342707      -6.62331911
H      -11.11073489      -3.48525379      -4.41058066
H      -11.09923477      -5.14852610      -5.04295912
H      -12.69249262      -5.58403528      -6.94607525
H      -11.87171658      -4.84991562      -8.34159122
H      -13.19053909      -1.87720402      -6.25789313
H      -13.68845881      -3.33391002      -5.36679171
C      -14.92926480      -4.22710360      -7.59122533
C      -16.03012708      -4.71958322      -7.58978899
Br     -17.81012827      -5.51588112      -7.58746655
C       -0.90499105       0.90499105       0.90499105
H       -1.28726161       0.33910322       1.76455396
C       -2.02963060       1.68959440       0.17020111
C       -1.65688158       2.86684604       1.04560143
C       -0.29952162       2.27721955       1.32352748
C       -2.57331526       3.21467643       2.19968592
C       -3.13178898       4.34605777       1.28120788
H       -3.97677773       3.98997835       0.67397675
C       -1.78882018       4.26496643       0.49233571
C       -3.43274107       5.60203037       1.92780632
C       -3.75418844       6.62918675       2.45946758
C       -4.24652897       7.91172715       3.14001199
C       -4.70167818       8.87856893       3.68299593
C       -5.31902956       9.99842697       4.35755383
H       -6.09501787       9.66933208       5.06402854
C       -5.83300269      11.15489104       3.44464258
C       -5.31536531      12.09553515       4.51224723
C       -4.35852368      11.03972014       5.00955518
C       -6.31389781      12.69819861       5.47682859
C       -6.16209841      14.01823620       4.66647635
H       -6.92077649      14.10687265       3.87788501
C       -4.81346422      13.46055772       4.12199576
H       -3.03764120       1.28330861       0.29552002
H       -1.85094166       1.85364360      -0.89905107
H        0.49037398       2.64979598       0.66064555
H        0.05644288       2.33134275       2.35617344
H       -2.04907542       3.57086568       3.09534202
H       -3.29869466       2.45323333       2.50045912
H       -1.87764526       4.35625750      -0.59393409
H       -1.01170920       4.95694032       0.83994852
H       -6.91127889      11.16352016       3.26072031
H       -5.31390538      11.24176830       2.48191948
H       -3.36206939      11.09103764       4.55346231
H       -4.24258182      10.95437382       6.09376436
H       -5.95788308      12.75227107       6.51244899
H       -7.31915564      12.26654933       5.47751844
H       -4.63742491      13.63189983       3.05631149
H       -3.92628571      13.78317999       4.67969484
C       -6.07511987      15.22476355       5.44771030
C       -6.00227535      16.23523021       6.10199373
Br      -5.88449191      17.86906933       7.15991471
C        0.90499105      -0.90499105       0.90499105
H        1.55028191      -0.29248962       1.54814725
C        1.69874018      -2.02211894       0.16856699
C        1.32077577      -2.92670858       1.32184471
C        0.17381021      -2.02710542       1.69935302
C        2.38476831      -3.25494000       2.34796931
C        2.53542760      -4.61890578       1.60472126
H        3.28288577      -4.55753092       0.80031614
C        1.09145972      -4.39530228       1.05936032
C        2.74450629      -5.77969857       2.43837291
C        2.98859900      -6.74429613       3.10994765
C        3.38444434      -7.96490194       3.94892182
C        3.76998089      -8.89749199       4.59577016
C        4.31288580      -9.98870971       5.37341485
H        5.26438015      -9.71291738       5.85108096
C        4.41756126     -11.36654369       4.64843137
C        3.98107196     -11.97998114       5.96209459
C        3.34575825     -10.67777106       6.38426969
C        5.04058018     -12.60329537       6.84504946
C        4.49773657     -13.98152787       6.36754651
H        5.04764938     -14.36134790       5.49653687
C        3.18145988     -13.25594976       5.95860806
H        2.76515497      -1.82056294       0.03075191
H        1.27461593      -2.32651187      -0.79559362
H       -0.78942092      -2.33434268       1.27514578
H        0.03809637      -1.82705894       2.76591800
H        2.00643675      -3.33398085       3.37486553
H        3.27695081      -2.62215446       2.35328184
H        0.93379045      -4.68860485       0.01757337
H        0.29720413      -4.83886952       1.67252438
H        5.41549521     -11.63227857       4.28774558
H        3.70134553     -11.50704715       3.82920047
H        2.28225255     -10.59694953       6.12736726
H        3.47587138     -10.38486684       7.42998177
H        4.90544958     -12.40267795       7.91447561
H        6.08260956     -12.39818329       6.58243057
H        2.75937897     -13.56730394       4.99895333
H        2.38877253     -13.28480352       6.71558449
C        4.37009650     -14.99033511       7.38716211
C        4.26319794     -15.83521117       8.24109018
Br       4.09035201     -17.20130430       9.62181964
