178
Properties=species:S:1:pos:R:3 pbc="F F F"
C        1.81489507       1.81489507      -1.81489507
H        1.35554978       2.80073150      -1.96434957
C        2.28851081       1.17778279      -3.15284458
C        3.64041104       1.79442192      -2.86420817
C        3.31219159       1.91793881      -1.39985032
C        4.04378038       3.02548504      -3.64812427
C        4.90639249       2.06137499      -4.52099923
H        4.33156806       1.66716837      -5.37170847
C        4.88802936       1.07376295      -3.31404208
C        6.19716403       2.55946389      -4.93566193
C        7.24226200       2.98255078      -5.34774207
C        8.53677900       3.54273903      -5.94846214
C        9.50552307       4.00866474      -6.47876731
C       10.62225336       4.60829732      -7.17417176
H       10.30971716       5.47809099      -7.77028242
C       11.51676279       3.63829155      -8.00719404
C       12.69239088       4.45184372      -7.50862516
C       11.88919568       4.92609902      -6.32221637
C       13.29942986       5.47516360      -8.44404363
C       14.46824237       4.46667070      -8.64160996
H       14.30808715       3.81593836      -9.51122072
C       14.02844419       3.78583109      -7.31145450
Br      16.24093790       5.23041751      -8.65308314
H        1.76692183       1.53259824      -4.04666183
H        2.29056913       0.08141184      -3.16326530
H        3.67661675       1.08186604      -0.79129682
H        3.59452951       2.85481578      -0.91144009
H        4.62142893       3.75581711      -3.06774915
H        3.24768109       3.55453634      -4.17988176
H        4.77717893       0.01745186      -3.57504995
H        5.73551442       1.17762624      -2.62516945
H       11.33593352       3.64328169      -9.08601623
H       11.51171590       2.59844186      -7.65714746
H       12.00640363       4.30291560      -5.42696217
H       12.00944667       5.97487053      -6.03611486
H       13.58223719       6.41493705      -7.95514098
H       12.73210204       5.71179949      -9.34903396
H       14.03783353       2.69232566      -7.32518913
H       14.56832351       4.12941869      -6.42113042
C       -1.81489507      -1.81489507      -1.81489507
H       -1.66904039      -2.87627841      -1.57531206
C       -1.73430216      -1.54067872      -3.34415731
C       -3.23963778      -1.69837835      -3.36102500
C       -3.32131307      -1.42638425      -1.88228341
C       -3.81505721      -2.98277974      -3.91955274
C       -4.09805149      -2.16957479      -5.22114043
H       -3.24509303      -2.21120573      -5.91414614
C       -4.05291720      -0.88474163      -4.33817556
C       -5.34436404      -2.45490844      -5.89301736
C       -6.34177019      -2.72825542      -6.50252924
C       -7.56739725      -3.12857803      -7.33200489
C       -8.48035780      -3.49661165      -8.01598567
C       -9.53276857      -4.00491377      -8.86704010
H       -9.38016032      -5.06624703      -9.11168321
C       -9.85258996      -3.16619664     -10.14346178
C      -11.30748689      -3.48000713      -9.86536575
C      -10.99804862      -3.72991311      -8.40954934
C      -11.96884520      -4.57343793     -10.67635396
C      -12.67805891      -3.43405381     -11.46441031
H      -12.12074893      -3.14836076     -12.36613654
C      -12.37145883      -2.49136508     -10.26290586
Br     -14.54608898      -3.72285047     -11.85549910
H       -1.15681403      -2.27188806      -3.91747980
H       -1.38731429      -0.53574113      -3.61219084
H       -3.53519678      -0.37991305      -1.63466979
H       -3.99170774      -2.06681215      -1.30226548
H       -4.71325247      -3.33485935      -3.39688338
H       -3.12543953      -3.82428702      -4.03237264
H       -3.55588155      -0.02235558      -4.79144361
H       -5.02669883      -0.56325954      -3.94835174
H       -9.43427642      -3.55418868     -11.07676633
H       -9.60169236      -2.10098235     -10.06463051
H      -11.11938311      -2.84666282      -7.77023548
H      -11.50724320      -4.57522951      -7.93795935
H      -12.64070236      -5.21626220     -10.09535066
H      -11.30934606      -5.21030636     -11.27328306
H      -12.03133558      -1.48838467     -10.53562806
H      -13.18561763      -2.39890659      -9.53434840
C       -1.81489507       1.81489507       1.81489507
H       -2.70823204       1.26829087       2.14410795
C       -2.16267002       3.21759931       1.23886885
C       -1.91356414       3.75280327       2.63267372
C       -1.09835342       2.53903976       2.99258755
C       -3.11351096       4.12681919       3.47705954
C       -2.80118585       5.60428942       3.08329144
H       -3.32101456       5.89171571       2.15771463
C       -1.34040632       5.13956607       2.79586200
C       -2.97812385       6.59210484       4.12206115
C       -3.18655899       7.43471215       4.95128371
C       -3.53004940       8.52480830       5.97312248
C       -3.87271724       9.37727767       6.74296021
C       -4.36586988      10.39356062       7.64529193
H       -5.44160568      10.27529893       7.84118596
C       -4.01177430      11.86908590       7.28138819
C       -3.80477705      12.08198373       8.76609898
C       -3.56530419      10.60549659       8.96671030
C       -4.90640776      12.76289684       9.54933248
C       -4.00021415      14.02821288       9.54809601
H       -4.22895667      14.69770593       8.70858362
C       -2.79374755      13.09256708       9.23941514
Br      -3.91203531      14.99724856      11.21515468
H       -3.17899489       3.32004200       0.84714500
H       -1.45972790       3.59079679       0.48472156
H       -0.01862529       2.67361382       2.85754050
H       -1.27554717       2.10473426       3.98050395
H       -2.99565549       3.90433421       4.54500550
H       -4.08563489       3.74869030       3.14777400
H       -0.87285817       5.58412225       1.91270032
H       -0.65293268       5.24054735       3.64483008
H       -4.81518393      12.44144172       6.80860578
H       -3.10052251      11.98535120       6.68143152
H       -2.50898775      10.31411064       8.91318302
H       -4.00763198      10.15366188       9.85913821
H       -5.08498163      12.32763030      10.53970329
H       -5.86915752      12.88054497       9.04323299
H       -2.09249171      13.47198313       8.49087347
H       -2.22562896      12.77239286      10.12085080
C        1.81489507      -1.81489507       1.81489507
H        2.57617875      -1.21454600       2.32990610
C        2.42284619      -3.07032553       1.12596647
C        2.08241288      -3.82124968       2.39537857
C        1.06793250      -2.77844572       2.78360250
C        3.21052545      -4.15997311       3.34689113
C        3.15799793      -5.59499675       2.73577203
H        3.82205559      -5.68468996       1.86369935
C        1.69284327      -5.27676949       2.30622162
C        3.34278778      -6.68903790       3.66046416
C        3.56387059      -7.60729111       4.40139315
C        3.92866798      -8.77911600       5.32019620
C        4.29028793      -9.68236319       6.02030401
C        4.80645227     -10.74668112       6.85158904
H        5.82305671     -10.52633206       7.20870180
C        4.70895778     -12.18906801       6.26422259
C        4.35379890     -12.63082544       7.66823542
C        3.88785640     -11.23725027       8.01240440
C        5.43561781     -13.27459780       8.50842148
C        4.72193957     -14.62853377       8.22604968
H        5.14277968     -15.14125281       7.35121374
C        3.44354207     -13.81351008       7.86867762
Br       4.56679928     -15.82423101       9.73340827
H        3.48370412      -2.99208298       0.87039480
H        1.87638439      -3.41768921       0.24117266
H        0.04224487      -3.02380570       2.48372904
H        1.06067130      -2.46792940       3.83218469
H        2.93312492      -4.10483446       4.40703581
H        4.15323373      -3.62362214       3.20524332
H        1.40341859      -5.64747131       1.31879084
H        0.92763444      -5.57853666       3.03213900
H        5.63610180     -12.58728835       5.84184129
H        3.90309084     -12.33094629       5.53326810
H        2.81574883     -11.07256454       7.84796805
H        4.15035001     -10.86377248       9.00630958
H        5.42927860     -12.96331105       9.55972557
H        6.45993350     -13.20187908       8.13112290
H        2.89892015     -14.16756075       6.98886740
H        2.73285698     -13.69137821       8.69463742
C       -0.00445707       0.01189536      -1.78238275
H       -0.66409135       0.67374010      -2.43557963
H        0.65740317      -0.63156657      -2.45157240
C       -0.90989263      -0.90692880      -0.91072765
C        0.90977584       0.90977584      -0.90977584
C       -0.00465871       1.77757030       0.00794375
H       -0.66225468       2.44313916      -0.64384735
H        0.64322798       2.43503045       0.67728295
C       -1.78241447       0.00034974      -0.00472694
H       -2.45427497      -0.65498947       0.64260836
H       -2.43311707       0.67328779      -0.65473579
C       -0.91132561       0.90220522       0.91563759
C       -0.01476271      -0.02253852       1.78660255
H       -0.67934791      -0.69751639       2.42135241
H        0.63392994       0.61504881       2.47327442
C        0.01484550      -1.77751727      -0.01636693
H        0.67870853      -2.42144646      -0.68295456
H       -0.62264859      -2.45592969       0.64226336
C        1.78714474       0.01002794       0.00389507
H        2.44202412       0.67113390       0.66197326
H        2.45385902      -0.65136977      -0.64189061
C        0.91606151      -0.90478549       0.90901405
