82
Properties=species:S:1:pos:R:3 pbc="F F F"
N        1.58194210       3.25179139      -5.19691112
C        2.05678261       2.99496310      -3.89932641
C        1.30292262       2.17819617      -3.05165705
C        1.79833715       1.79833715      -1.79833715
C        3.06012595       2.22688756      -1.35555383
N        3.63071545       1.75811614      -0.15969397
C        3.85623414       2.95106367      -2.24749991
C        3.36167615       3.32833083      -3.50198373
Br       4.50421969       4.32797965      -4.64737981
H        0.57128784       3.30914106      -5.27151898
H        2.05263812       4.03676099      -5.64233066
H        0.32738201       1.82414719      -3.37413700
H        4.33788131       2.36894652       0.23651914
H        2.93471695       1.46946212       0.52463868
H        4.87361102       3.21297513      -1.96895707
N       -4.98686093      -3.63901189      -1.40477179
C       -3.85508226      -3.07652569      -2.01946416
C       -2.99874038      -2.27574628      -1.25828918
C       -1.79833715      -1.79833715      -1.79833715
C       -1.42151527      -2.10528986      -3.11576222
N       -0.16711003      -1.74444488      -3.63697065
C       -2.22404804      -2.99429641      -3.83645327
C       -3.42300671      -3.47392231      -3.29506168
Br      -4.46418191      -4.66569884      -4.34969840
H       -5.40730095      -3.05883156      -0.68581538
H       -5.66893503      -3.98771671      -2.07507802
H       -3.26160101      -2.03160352      -0.23246166
H       -0.13325431      -1.68728154      -4.64977284
H        0.22787297      -0.92238448      -3.18502889
H       -1.90763467      -3.32602093      -4.82188763
N       -4.98309406       3.64503875       1.40251180
C       -3.85329969       3.07961437       2.01815807
C       -2.99702467       2.27867478       1.25707640
C       -1.79833715       1.79833715       1.79833715
C       -1.42321911       2.10243916       3.11690908
N       -0.17030201       1.73860608       3.63961747
C       -2.22546863       2.99158308       3.83774600
C       -3.42270561       3.47413730       3.29514780
Br      -4.46365025       4.66589077       4.35003813
H       -5.40329751       3.06677706       0.68187331
H       -5.66570888       3.99376430       2.07225658
H       -3.25856730       2.03670030       0.23039860
H       -0.13824833       1.67968292       4.65237744
H        0.22405883       0.91664267       3.18695656
H       -1.91015812       3.32111679       4.82426831
N        1.39132910      -3.67549538       4.96382013
C        1.97038500      -3.20972661       3.77096050
C        1.21905285      -2.38223374       2.93148925
C        1.79833715      -1.79833715       1.79833715
C        3.14434043      -2.02772853       1.47049838
N        3.78046977      -1.35498801       0.41306777
C        3.92103692      -2.76473624       2.36902456
C        3.34214931      -3.34612639       3.50371500
Br       4.46672313      -4.34809351       4.66476250
H        0.39347253      -3.85225056       4.90622480
H        1.90363321      -4.45301822       5.37507833
H        0.17777541      -2.18002210       3.16786869
H        4.59688955      -1.83080688       0.04261226
H        3.13352301      -1.06217155      -0.31615415
H        4.98736574      -2.87691305       2.19126443
C       -0.00445707       0.01189536      -1.78238275
H       -0.66409135       0.67374010      -2.43557963
H        0.65740317      -0.63156657      -2.45157240
C       -0.90989263      -0.90692880      -0.91072765
C        0.90977584       0.90977584      -0.90977584
C       -0.00465871       1.77757030       0.00794375
H       -0.66225468       2.44313916      -0.64384735
H        0.64322798       2.43503045       0.67728295
C       -1.78241447       0.00034974      -0.00472694
H       -2.45427497      -0.65498947       0.64260836
H       -2.43311707       0.67328779      -0.65473579
C       -0.91132561       0.90220522       0.91563759
C       -0.01476271      -0.02253852       1.78660255
H       -0.67934791      -0.69751639       2.42135241
H        0.63392994       0.61504881       2.47327442
C        0.01484550      -1.77751727      -0.01636693
H        0.67870853      -2.42144646      -0.68295456
H       -0.62264859      -2.45592969       0.64226336
C        1.78714474       0.01002794       0.00389507
H        2.44202412       0.67113390       0.66197326
H        2.45385902      -0.65136977      -0.64189061
C        0.91606151      -0.90478549       0.90901405
