138
Properties=species:S:1:pos:R:3 pbc="F F F"
N        1.71798404       2.98374396      -5.29392963
C        2.21660147       2.73763133      -4.00491430
C        1.42946832       1.97180485      -3.13401118
C        1.79792621       1.79792621      -1.79792621
C        2.92009670       2.44820695      -1.27171272
C        3.71031263       3.20162964      -2.14692298
C        3.36713586       3.38879637      -3.50585175
C        4.27985363       4.19521471      -4.35439684
C        5.58848297       3.70750641      -4.57644935
C        6.54038829       4.42345965      -5.31089364
N        7.77836930       3.82092690      -5.59186374
C        6.13021849       5.61053655      -5.92784067
C        4.84305804       6.11564136      -5.72796273
C        3.92311493       5.44387514      -4.91076260
N        2.60949121       5.93539226      -4.86259828
Br       7.31408898       6.59181943      -7.04591989
N        3.39319214       2.19487264       0.02743567
H        1.20861664       2.21266792      -5.71105788
H        2.39330981       3.40329627      -5.93003170
H        0.52035020       1.50635654      -3.50571681
H        4.62132303       3.66161506      -1.76683058
H        5.86249331       2.73570664      -4.16728680
H        8.11655156       3.20171186      -4.86228031
H        8.48246039       4.49014730      -5.89525312
H        4.54280152       7.03348576      -6.22755649
H        2.02619515       5.50896203      -4.14612715
H        2.52285916       6.94463309      -4.90095917
H        3.94161505       2.95058184       0.42523929
H        2.65984312       1.87234121       0.65545623
N       -4.82438365      -1.31398979      -3.85728418
C       -3.79324392      -1.98490951      -3.18099367
C       -2.92280593      -1.22073710      -2.39174132
C       -1.79792621      -1.79792621      -1.79792621
C       -1.46509008      -3.13587688      -2.03904942
C       -2.34296551      -3.89877720      -2.81712254
C       -3.49331000      -3.34419660      -3.42427737
C       -4.36756054      -4.24202618      -4.21987848
C       -5.02412936      -5.29950295      -3.54880643
C       -5.81999282      -6.23386911      -4.22087965
N       -6.53707957      -7.18221240      -3.47186798
C       -6.04703747      -6.03441274      -5.58714550
C       -5.41344407      -4.99718037      -6.27603770
C       -4.53896646      -4.12172952      -5.61705669
N       -4.04406702      -3.02461021      -6.33880451
Br      -7.21082154      -7.17822682      -6.56277994
N       -0.41913952      -3.78294032      -1.35854928
H       -5.24175417      -0.54377527      -3.34681301
H       -5.51564105      -1.92968016      -4.28131657
H       -3.12833534      -0.16434891      -2.23973930
H       -2.13116739      -4.95723454      -2.96136674
H       -4.91222351      -5.38477880      -2.46848446
H       -6.06748775      -7.48755448      -2.62550149
H       -6.87097158      -7.95990330      -4.03698594
H       -5.61472657      -4.85419900      -7.33491821
H       -3.30290942      -2.51039234      -5.86798257
H       -3.84861580      -3.20239095      -7.31744467
H       -0.03349118      -4.58187498      -1.85159142
H        0.29993094      -3.13662598      -1.04003307
N       -5.42528186       2.25327022       2.31710554
C       -4.04698543       2.50366609       2.40849557
C       -3.18375369       1.69517768       1.65635298
C       -1.79792621       1.79792621       1.79792621
C       -1.23469926       2.65404558       2.75127154
C       -2.09892518       3.46855416       3.49138591
C       -3.50515926       3.39264742       3.36397729
C       -4.33371700       4.31021907       4.18552912
C       -4.21808724       5.70042342       3.95392806
C       -4.91101104       6.64727974       4.71645080
N       -4.84006677       8.00180695       4.34928622
C       -5.82590210       6.17743553       5.66525808
C       -5.96282069       4.80955343       5.91428802
C       -5.19407065       3.86834744       5.21533459
N       -5.47866071       2.50935674       5.41946429
Br      -6.90374568       7.38247613       6.66560649
N        0.15045390       2.87899946       2.83208355
H       -5.75206860       1.98459980       1.39567404
H       -6.00892236       2.96457092       2.75314450
H       -3.60046139       0.97946468       0.95249749
H       -1.67266918       4.18526375       4.19183573
H       -3.57206257       6.04585716       3.14756704
H       -3.94904190       8.28039724       3.95110459
H       -5.15129894       8.62741220       5.08914968
H       -6.68900662       4.46727744       6.64755972
H       -4.80032775       1.87083318       5.01012340
H       -5.74342887       2.25950547       6.36551708
H        0.46864674       3.19197859       3.74362574
H        0.69581729       2.09679645       2.47574894
N        2.29710093      -5.42556002       2.27299668
C        2.39876753      -4.04631974       2.51405983
C        1.64696788      -3.18344775       1.70486872
C        1.79792621      -1.79792621       1.79792621
C        2.76021775      -1.23537304       2.64442559
C        3.50002160      -2.09912488       3.45971878
C        3.36326896      -3.50497282       3.39354219
C        4.18538593      -4.33292480       4.31115445
C        3.96334526      -4.20706363       5.70202984
C        4.72747662      -4.89882785       6.64843711
N        4.36936966      -4.81701509       8.00477519
C        5.66749527      -5.82266598       6.17843445
C        5.90697154      -5.96978498       4.80990562
C        5.20692095      -5.20256532       3.86826641
N        5.40062402      -5.49700888       2.50984885
Br       6.66865395      -6.89921572       7.38395863
N        2.85118853       0.15063039       2.86007097
H        1.37194073      -5.74818063       2.01222108
H        2.73395591      -6.00745886       2.98522301
H        0.93597111      -3.60018537       0.99626707
H        4.20767937      -1.67281143       4.16927786
H        3.16328225      -3.55376956       6.04843494
H        3.97859047      -3.92174235       8.28021091
H        5.11121092      -5.12898490       8.62766500
H        6.63346271      -6.70275337       4.46762770
H        4.99152499      -4.82013186       1.86962748
H        6.34338387      -5.76934542       2.25572212
H        3.76668682       0.46499961       3.16527038
H        2.49334342       0.69330078       2.07668546
C       -0.00445707       0.01189536      -1.78238275
H       -0.66409135       0.67374010      -2.43557963
H        0.65740317      -0.63156657      -2.45157240
C       -0.90989263      -0.90692880      -0.91072765
C        0.90977584       0.90977584      -0.90977584
C       -0.00465871       1.77757030       0.00794375
H       -0.66225468       2.44313916      -0.64384735
H        0.64322798       2.43503045       0.67728295
C       -1.78241447       0.00034974      -0.00472694
H       -2.45427497      -0.65498947       0.64260836
H       -2.43311707       0.67328779      -0.65473579
C       -0.91132561       0.90220522       0.91563759
C       -0.01476271      -0.02253852       1.78660255
H       -0.67934791      -0.69751639       2.42135241
H        0.63392994       0.61504881       2.47327442
C        0.01484550      -1.77751727      -0.01636693
H        0.67870853      -2.42144646      -0.68295456
H       -0.62264859      -2.45592969       0.64226336
C        1.78714474       0.01002794       0.00389507
H        2.44202412       0.67113390       0.66197326
H        2.45385902      -0.65136977      -0.64189061
C        0.91606151      -0.90478549       0.90901405
