154
Properties=species:S:1:pos:R:3 pbc="F F F"
N        1.52776548       3.34029989      -5.15320007
C        2.03367046       3.04488858      -3.87411487
C        1.28528111       2.21559471      -3.03164934
C        1.79830125       1.79830125      -1.79830125
C        3.07519459       2.19429053      -1.37269770
C        3.86367982       2.92820404      -2.26433138
C        3.35481488       3.35437984      -3.50089106
C        4.20288097       4.14303376      -4.34917848
C        4.88726037       4.84508718      -5.04116001
C        5.72557285       5.79691395      -5.89919473
C        6.35247032       6.59357484      -6.54227135
C        7.07889812       7.59005984      -7.27613642
C        8.46785682       7.66886901      -7.09290802
C        9.22842401       8.64477405      -7.74442478
N       10.62815759       8.61277954      -7.62122458
C        8.57974739       9.46917617      -8.67616072
C        7.19570673       9.39317807      -8.86884908
C        6.41929934       8.49326343      -8.13063210
N        5.05216717       8.36913028      -8.44096931
Br       9.55390842      10.74609358      -9.69452438
N        3.66229152       1.68948579      -0.19964625
H        0.51503579       3.38477390      -5.20196913
H        1.97096586       4.13978350      -5.59713296
H        0.29686938       1.88703225      -3.34159647
H        4.89078832       3.16872020      -1.99894019
H        8.96037199       6.95467532      -6.43663345
H       10.96225774       8.27923397      -6.72282812
H       11.06929885       9.48519748      -7.90431172
H        6.71919959      10.03692310      -9.60347915
H        4.50526960       7.92487428      -7.70874938
H        4.62230189       9.22551967      -8.77574041
H        4.38803590       2.27992657       0.19357513
H        2.97466033       1.39984569       0.49258890
N       -5.20895538      -3.22308878      -1.58922128
C       -3.96014589      -2.86403061      -2.12849741
C       -3.09476792      -2.08290423      -1.35485302
C       -1.79830125      -1.79830125      -1.79830125
C       -1.32766662      -2.28895673      -3.02555947
C       -2.15362056      -3.16094492      -3.74164977
C       -3.45657907      -3.44753435      -3.30597237
C       -4.26714766      -4.31548235      -4.11246320
C       -4.96803825      -4.99880678      -4.80666253
C       -5.89206649      -5.81189926      -5.71771580
C       -6.63785227      -6.39264068      -6.45782356
C       -7.54062243      -7.03404641      -7.37042554
C       -7.00104787      -7.86198122      -8.36660476
C       -7.82190817      -8.48188528      -9.31382940
N       -7.25046416      -9.39220745     -10.21949010
C       -9.21076603      -8.34530677      -9.16901148
C       -9.75709606      -7.52586852      -8.17476930
C       -8.92909417      -6.81470343      -7.29939727
N       -9.52148280      -6.09763012      -6.24315384
Br     -10.40767436      -9.24688019     -10.33997183
N        0.00675470      -2.12339040      -3.43478786
H       -5.60772037      -2.53178685      -0.96227159
H       -5.87845982      -3.54836655      -2.28105596
H       -3.43148587      -1.69806303      -0.39594920
H       -1.77936956      -3.63031066      -4.64876849
H       -5.92634419      -8.02742650      -8.39791006
H       -6.30050101      -9.16706750     -10.49675132
H       -7.85451748      -9.58987698     -11.01441358
H      -10.83656848      -7.44467170      -8.07836167
H       -8.91017883      -5.39917957      -5.82953486
H      -10.44090198      -5.72494813      -6.45771187
H        0.14839926      -2.18495599      -4.43783061
H        0.44537745      -1.30059584      -3.02669874
N       -5.34701552       1.82124679       2.85300313
C       -3.98558255       2.17124656       2.79584481
C       -3.13322481       1.41948413       1.97981623
C       -1.79830125       1.79830125       1.79830125
C       -1.27741235       2.94110155       2.42366893
C       -2.15932165       3.75123109       3.14566250
C       -3.49815276       3.37584161       3.33609141
C       -4.33790629       4.23138099       4.12580592
C       -5.03228603       4.91463812       4.82658340
C       -5.90625679       5.74156420       5.77386055
C       -6.57341007       6.34952123       6.56538521
C       -7.34591116       7.04319147       7.55599174
C       -7.00338336       8.37052982       7.85572066
C       -7.68781390       9.08846900       8.84133995
N       -7.38695698      10.44888156       9.02632317
C       -8.80209039       8.48218637       9.44080751
C       -9.15369245       7.16068206       9.14335936
C       -8.39704389       6.40522728       8.24092370
N       -8.85511108       5.12324165       7.88391402
Br      -9.86311125       9.42477263      10.70664250
N        0.02016144       3.41225634       2.15932865
H       -5.52812324       0.82849972       2.74515585
H       -5.84208677       2.21992699       3.64586856
H       -3.51412338       0.53483076       1.47654396
H       -1.80467512       4.69129730       3.56247629
H       -6.19490459       8.84925585       7.30752032
H       -6.41528326      10.68965574       8.85938083
H       -7.73485800      10.81331244       9.91063760
H      -10.02697200       6.71774425       9.61488559
H       -8.14102222       4.53688115       7.46098989
H       -9.36054379       4.64204911       8.62096907
H        0.41231108       3.99429728       2.89240114
H        0.65517244       2.67411480       1.86297477
N        1.24771363      -4.34971693       4.42383487
C        1.92062770      -3.54978938       3.48225683
C        1.16867534      -2.69710137       2.66674846
C        1.79830125      -1.79830125       1.79830125
C        3.19719675      -1.72272816       1.72225792
C        3.94377638      -2.49413253       2.61830633
C        3.32004086      -3.40112261       3.48892231
C        4.14905785      -4.19475719       4.35127816
C        4.83728591      -4.89778074       5.03844090
C        5.70721761      -5.84653261       5.86793132
C        6.38455963      -6.63433721       6.46941968
C        7.19557291      -7.61088239       7.13863908
C        8.53838889      -7.29526817       7.39597678
C        9.39366488      -8.21850933       8.00544863
N       10.69670381      -7.81788722       8.34757068
C        8.84127616      -9.42650022       8.45730789
C        7.50162763      -9.74655188       8.20955436
C        6.67667466      -8.86905513       7.49746507
N        5.30925170      -9.17855804       7.37445702
Br       9.90176087     -10.69253097       9.40023454
N        3.85250011      -0.74536448       0.95355896
H        0.32133412      -4.64622909       4.13421559
H        1.80465937      -5.11999110       4.78323185
H        0.08340257      -2.72914924       2.71294629
H        5.02583149      -2.38638598       2.64623124
H        8.91744752      -6.31348092       7.12075232
H       11.10955608      -7.14543462       7.70932913
H       11.31321764      -8.60412727       8.54146313
H        7.09615044     -10.68497050       8.57848091
H        4.83911330      -8.66656411       6.63321586
H        5.10936060     -10.17313691       7.34106446
H        4.80029086      -0.98920555       0.68489093
H        3.29321536      -0.42136186       0.16733991
C       -0.00445707       0.01189536      -1.78238275
H       -0.66409135       0.67374010      -2.43557963
H        0.65740317      -0.63156657      -2.45157240
C       -0.90989263      -0.90692880      -0.91072765
C        0.90977584       0.90977584      -0.90977584
C       -0.00465871       1.77757030       0.00794375
H       -0.66225468       2.44313916      -0.64384735
H        0.64322798       2.43503045       0.67728295
C       -1.78241447       0.00034974      -0.00472694
H       -2.45427497      -0.65498947       0.64260836
H       -2.43311707       0.67328779      -0.65473579
C       -0.91132561       0.90220522       0.91563759
C       -0.01476271      -0.02253852       1.78660255
H       -0.67934791      -0.69751639       2.42135241
H        0.63392994       0.61504881       2.47327442
C        0.01484550      -1.77751727      -0.01636693
H        0.67870853      -2.42144646      -0.68295456
H       -0.62264859      -2.45592969       0.64226336
C        1.78714474       0.01002794       0.00389507
H        2.44202412       0.67113390       0.66197326
H        2.45385902      -0.65136977      -0.64189061
C        0.91606151      -0.90478549       0.90901405
