133
Properties=species:S:1:pos:R:3 pbc="F F F"
C        0.00000000       0.00000000       0.00000000
N        0.61786146       2.43039586      -4.24329605
C        1.12376644       2.13498455      -2.96421085
C        0.37537709       1.30569069      -2.12174532
C        0.88839723       0.88839723      -0.88839723
C        2.16529057       1.28438651      -0.46279368
C        2.95377579       2.01830002      -1.35442736
C        2.44491086       2.44447581      -2.59098704
C        3.29297694       3.23312973      -3.43927446
C        3.97735634       3.93518315      -4.13125599
C        4.81566883       4.88700993      -4.98929071
C        5.44256630       5.68367081      -5.63236733
C        6.16899409       6.68015581      -6.36623239
C        7.55795279       6.75896499      -6.18300399
C        8.31851999       7.73487003      -6.83452076
N        9.71825356       7.70287551      -6.71132056
C        7.66984336       8.55927215      -7.76625669
C        6.28580270       8.48327404      -7.95894506
C        5.50939532       7.58335940      -7.22072808
N        4.14226314       7.45922626      -7.53106528
Br       8.64400439       9.83618955      -8.78462036
N        2.75238750       0.77958177       0.71025778
H       -0.39486824       2.47486987      -4.29206510
H        1.06106184       3.22987948      -4.68722894
H       -0.61303465       0.97712823      -2.43169245
H        3.98088429       2.25881617      -1.08903617
H        8.05046797       6.04477129      -5.52672942
H       10.05235372       7.36932995      -5.81292410
H       10.15939483       8.57529346      -6.99440769
H        5.80929557       9.12701908      -8.69357513
H        3.59536558       7.01497025      -6.79884536
H        3.71239786       8.31561564      -7.86583638
H        3.47813187       1.37002255       1.10347916
H        2.06475631       0.48994167       1.40249292
N       -0.67333670      -4.29408548      -2.32413119
C       -1.21529085      -3.04800449      -1.95966651
C       -0.44190075      -2.18264994      -1.17826241
C       -0.88839723      -0.88839723      -0.88839723
C       -2.11855093      -0.42000199      -1.37391784
C       -2.83478163      -1.24548425      -2.24623729
C       -2.39604233      -2.54624628      -2.53808510
C       -3.20270696      -3.35662929      -3.40604489
C       -3.89685316      -4.05755265      -4.08938968
C       -4.80757061      -4.98187652      -4.90252234
C       -5.54717863      -5.72814339      -5.48328242
C       -6.45898905      -6.63173240      -6.12466085
C       -7.45929535      -6.09267983      -6.94794660
C       -8.40591030      -6.91452949      -7.56747099
N       -9.31604461      -6.34308491      -8.47332011
C       -8.25648703      -8.30334845      -7.43553672
C       -7.25812308      -8.84913665      -6.62076207
C       -6.38310530      -8.02063858      -5.90973892
N       -5.32291160      -8.61198815      -5.19765494
Br      -9.42655328      -9.50106985      -8.33719118
N       -2.53130293       0.91266804      -1.20307660
H       -0.04309542      -4.69303537      -1.63593594
H       -1.36412877      -4.96469679      -2.64934469
H        0.51917627      -2.51762291      -0.79733939
H       -3.74444330      -0.87256658      -2.71172676
H       -7.49434599      -5.01758129      -7.11004141
H       -9.59548954      -5.39464977      -8.24446845
H      -10.10973573      -6.94894314      -8.67041711
H       -7.15821143      -9.92855240      -6.54312594
H       -4.90902690      -8.00154592      -4.49860837
H       -5.53356329      -9.53317381      -4.82711280
H       -3.53495058       1.05145974      -1.26118442
H       -2.12205017       1.35003849      -0.38019337
N       -3.58373474       0.34112645       3.36669218
C       -2.60906881       1.01001348       2.60387955
C       -1.79127307       0.25886524       1.75267478
C       -0.88839723       0.88839723       0.88839723
C       -0.77915612       2.28651681       0.84679782
C       -1.67569880       3.03598039       1.61482399
C       -2.58079830       2.41220130       2.48737411
C       -3.44232185       3.24278286       3.28027642
C       -4.12982595       3.93065326       3.98331627
C       -4.96115290       4.79787878       4.93293779
C       -5.56522503       5.47098648       5.72239294
C       -6.23833089       6.27500667       6.70204474
C       -6.45803134       7.63015956       6.41173087
C       -7.06919625       8.47824342       7.34047111
N       -7.37257456       9.79750680       6.96236828
C       -7.56108323       7.90935130       8.52493767
C       -7.35099288       6.55748507       8.81954385
C       -6.63763472       5.73631486       7.93953322
N       -6.55260749       4.35979951       8.22014768
Br      -8.50880545       8.96250025       9.79350861
N        0.02641100       2.94577941      -0.09765693
H       -3.32195330      -0.59811955       3.64823299
H       -3.94814806       0.88871868       4.14130351
H       -1.86262030      -0.82550183       1.75866755
H       -1.67676463       4.12054320       1.53142881
H       -6.15180047       8.02478712       5.44538109
H       -6.70987936      10.21058394       6.31414446
H       -7.57059580      10.40046449       7.75803568
H       -7.75047306       6.13958745       9.73982925
H       -5.81054289       3.88435889       7.71427941
H       -6.54664210       4.13684979       9.21035800
H        0.31066270       3.88139969       0.17393827
H        0.80709278       2.37596999      -0.41667215
N        0.84851650      -2.03454836       4.40848850
C        1.23146022      -1.93293756       3.05856407
C        0.48058016      -1.11432300       2.20790994
C        0.88839723      -0.88839723       0.88839723
C        2.06004390      -1.47063350       0.38179335
C        2.86604228      -2.19456154       1.26589935
C        2.46178401      -2.42941012       2.58917958
C        3.31600524      -3.21875595       3.43061993
C        3.99943697      -3.91981242       4.12454609
C        4.82831003      -4.86823881       4.99542062
C        5.43955660      -5.66118816       5.65785968
C        6.13897892      -6.65365698       6.42274640
C        7.48198887      -6.91043283       6.10750007
C        8.20777648      -7.89499820       6.78513610
N        9.57977885      -8.03735144       6.51531935
C        7.58918651      -8.53862492       7.86756077
C        6.25183523      -8.28421689       8.19196969
C        5.49256990      -7.38184791       7.43906499
N        4.19044323      -7.06969378       7.87241767
Br       8.53720390      -9.80733961       8.92027080
N        2.55702156      -1.16056213      -0.89587221
H       -0.15099991      -1.95678729       4.56627936
H        1.25504293      -2.82967021       4.89345712
H       -0.42633582      -0.64386849       2.57825335
H        3.82540631      -2.57788999       0.92544033
H        7.96665937      -6.32927877       5.32603055
H        9.84077508      -7.83899659       5.55483609
H        9.95821642      -8.92088770       6.84999185
H        5.79927521      -8.78952989       9.04108468
H        3.61160647      -6.64332299       7.15425174
H        3.71596054      -7.83172031       8.34616904
H        3.16781837      -1.86807623      -1.29121933
H        1.82779858      -0.86660908      -1.54220261
