145
Properties=species:S:1:pos:R:3 pbc="F F F"
C        0.00000000       0.00000000       0.00000000
C        0.91812223       0.91812223      -0.91812223
C        0.42383959       0.84219330      -2.36043841
C        1.24084239       1.68158271      -3.37841797
C        0.61205464       1.52602219      -4.78793939
C        1.29842578       2.32631479      -5.89154299
C        2.71922037       1.27842477      -3.37438509
C        3.28323364       0.04817876      -3.68294391
C        4.67044635      -0.07891406      -3.60085362
C        5.47023976       1.00898495      -3.21562080
C        4.89702081       2.24675669      -2.90694243
C        3.52043614       2.37642648      -2.98905598
C        2.66822034       3.51941462      -2.73552449
C        2.98858482       4.80840246      -2.34267686
C        1.95191448       5.73128279      -2.17355132
C        0.61525303       5.36226010      -2.39595417
C        0.28899754       4.06381417      -2.78986564
C        1.32174304       3.15162504      -2.95621006
H        1.93550509       0.53790946      -0.79567374
H        0.84491743       1.92419058      -0.49728662
H       -0.62649592       1.16362226      -2.38886230
H        0.42276568      -0.20961431      -2.67946356
H       -0.44514214       1.82225530      -4.74569001
H        0.61285764       0.46344622      -5.06795161
H        2.33941336       2.03144006      -6.04754900
H        1.23875805       3.40626858      -5.73186124
H        2.67132959      -0.79750590      -3.98000004
H        5.14013757      -1.03178158      -3.83708399
H        6.54949441       0.88658100      -3.15714684
H        5.52594710       3.07944361      -2.61093727
H        4.01716807       5.10636364      -2.16877039
H        2.18266000       6.74893330      -1.86660293
H       -0.17362359       6.09906150      -2.25917096
H       -0.74618126       3.78533684      -2.96007138
C        0.62890099       2.08067433      -7.14254152
C        0.06817398       1.87495045      -8.19025279
Br      -0.83847416       1.54231233      -9.88431330
C       -0.91812223      -0.91812223      -0.91812223
C       -0.17232557      -2.20943248      -1.24471325
C       -0.94606316      -3.20143613      -2.15334378
C       -0.07940508      -4.46814312      -2.37846802
C       -0.73100424      -5.55087004      -3.23440927
C       -1.34268463      -2.54792989      -3.48141570
C       -0.52049580      -2.02422994      -4.46963058
C       -1.12166063      -1.47020613      -5.60051914
C       -2.51943655      -1.44399468      -5.73141428
C       -3.34329331      -1.97410346      -4.73332315
C       -2.74943253      -2.52615485      -3.61033122
C       -3.34233113      -3.14025236      -2.44057596
C       -4.67163232      -3.35315797      -2.11487385
C       -4.96865571      -3.98476581      -0.90332707
C       -3.94438587      -4.39472476      -0.03435667
C       -2.60415284      -4.17985654      -0.35866796
C       -2.31478359      -3.55241945      -1.56237510
H       -1.14383230      -0.32036308      -1.80489291
H       -1.83222683      -1.09005510      -0.34411270
H        0.08872030      -2.71173620      -0.30297273
H        0.78433486      -1.95473518      -1.72221461
H        0.18392777      -4.90251992      -1.40421102
H        0.87317919      -4.17575330      -2.84168135
H       -0.95267216      -5.21496657      -4.25076369
H       -1.63208335      -5.96800893      -2.77679559
H        0.56052454      -2.03963439      -4.37471388
H       -0.50178608      -1.05227455      -6.39137935
H       -2.96629231      -1.00583618      -6.62109376
H       -4.42172471      -1.94797567      -4.84662760
H       -5.47209115      -3.04228839      -2.77792257
H       -6.00628363      -4.16225974      -0.62965286
H       -4.20105795      -4.88567619       0.90212528
H       -1.81749732      -4.49927261       0.31754297
C        0.18059853      -6.65652792      -3.37618746
C        0.94406585      -7.58251639      -3.49492669
Br       2.17852794      -9.07976143      -3.68691798
C       -0.91812223       0.91812223       0.91812223
C       -1.48370830       0.08055051       2.06221249
C       -2.41766614       0.84694763       3.03622931
C       -2.89351635      -0.11972218       4.15222205
C       -3.80035443       0.50963408       5.20629504
C       -3.60175936       1.47595188       2.29431899
C       -4.60185059       0.84646164       1.56604409
C       -5.58128383       1.64154742       0.96955466
C       -5.55235618       3.03897984       1.10350949
C       -4.54314144       3.66817379       1.83940470
C       -3.57043986       2.88149279       2.43398596
C       -2.42800163       3.25225992       3.24289789
C       -1.98626326       4.49877485       3.65462603
C       -0.83755281       4.57065923       4.44853655
C       -0.14524219       3.40699641       4.82122870
C       -0.58657456       2.14974649       4.40635629
C       -1.72722791       2.08396991       3.61838032
H       -1.69296114       1.31741101       0.25871613
H       -0.27240219       1.72882647       1.26516597
H       -0.64667809      -0.34986750       2.62917804
H       -2.02866179      -0.77498610       1.63893924
H       -2.01620818      -0.54893068       4.65552567
H       -3.41923075      -0.96884901       3.69387373
H       -4.73606132       0.89210982       4.79023128
H       -3.30141743       1.29486626       5.78060419
H       -4.62984331      -0.23296678       1.45694721
H       -6.37757669       1.17522365       0.39263963
H       -6.32548475       3.63901494       0.62872256
H       -4.53222856       4.74852926       1.93557015
H       -2.51266416       5.40511488       3.37452306
H       -0.47498439       5.53999088       4.78322096
H        0.74532566       3.48896160       5.44097293
H       -0.04673345       1.25442933       4.69806419
C       -4.17891910      -0.49391688       6.16711462
C       -4.49596701      -1.33439081       6.97180102
Br      -5.00860667      -2.69336606       8.27291087
C        0.91812223      -0.91812223       0.91812223
C        2.06021322      -0.07973073       1.48652735
C        3.05238232      -0.85357099       2.39488977
C        4.13754601       0.12573992       2.91421013
C        5.17041937      -0.49492367       3.85094051
C        3.67509742      -2.04212447       1.65480833
C        4.46538956      -2.03530549       0.51366127
C        4.91537282      -3.25948556       0.01752752
C        4.57552248      -4.46263953       0.65668350
C        3.77994754      -4.46387145       1.80690094
C        3.33309599      -3.25016269       2.30265993
C        2.51238487      -2.95272131       3.45805327
C        1.94467779      -3.79762990       4.39735645
C        1.19052225      -3.23474729       5.43147905
C        1.01084685      -1.84459240       5.51802805
C        1.57982842      -0.99076068       4.57208824
C        2.32737245      -1.55460673       3.54759895
H        1.26509356      -1.73006470       0.27393003
H        0.25769931      -1.31572615       1.69296916
H        1.63189812       0.75879086       2.05288138
H        2.61432609       0.37503975       0.65332858
H        3.64960688       0.96139631       3.43459260
H        4.65995414       0.57271865       2.05701998
H        5.75463847      -1.28755408       3.37620986
H        4.73101975      -0.86449602       4.78137210
H        4.73088792      -1.10947560       0.01346021
H        5.53663609      -3.28446127      -0.87565739
H        4.93644411      -5.40534748       0.25143067
H        3.52473105      -5.40014673       2.29145019
H        2.07689665      -4.87303784       4.34236762
H        0.73734283      -3.88102427       6.17982912
H        0.42090662      -1.43054014       6.33316211
H        1.43698878       0.08273779       4.64497597
C        6.12139590       0.51266332       4.24338427
C        6.91783874       1.35651743       4.57205591
Br       8.20561946       2.72095815       5.10349016
