158
Properties=species:S:1:pos:R:3 pbc="F F F"
C        1.82802626       1.82802626      -1.82802626
C        1.33374361       1.75209732      -3.27034244
C        2.15074642       2.59148673      -4.28832200
C        1.52195866       2.43592621      -5.69784341
C        2.20832980       3.23621881      -6.80144701
Br       1.30020773       2.90303993      -8.49826153
C        3.62912439       2.18832879      -4.28428912
C        4.19313767       0.95808278      -4.59284794
C        5.58035037       0.83098996      -4.51075764
C        6.38014378       1.91888898      -4.12552482
C        5.80692484       3.15666071      -3.81684645
C        4.43034017       3.28633051      -3.89896001
C        3.57812436       4.42931864      -3.64542851
C        3.89848885       5.71830648      -3.25258089
C        2.86181850       6.64118682      -3.08345534
C        1.52515706       6.27216412      -3.30585819
C        1.19890156       4.97371819      -3.69976967
C        2.23164707       4.06152906      -3.86611409
H        2.84540912       1.44781349      -1.70557776
H        1.75482145       2.83409460      -1.40719065
H        0.28340810       2.07352628      -3.29876633
H        1.33266970       0.70028971      -3.58936758
H        0.46476189       2.73215932      -5.65559403
H        1.52276166       1.37335024      -5.97785564
H        3.24931738       2.94134409      -6.95745303
H        2.14866208       4.31617261      -6.64176527
H        3.58123362       0.11239813      -4.88990406
H        6.05004159      -0.12187755      -4.74698801
H        7.45939844       1.79648502      -4.06705087
H        6.43585113       3.98934763      -3.52084129
H        4.92707210       6.01626767      -3.07867441
H        3.09256402       7.65883733      -2.77650695
H        0.73628043       7.00896553      -3.16907498
H        0.16372276       4.69524087      -3.86997541
C       -1.82802626      -1.82802626      -1.82802626
C       -2.56220348      -2.84087244      -0.95310745
C       -3.48899089      -3.82047126      -1.72109300
C       -4.18087870      -4.76828404      -0.70656555
C       -5.15194228      -5.77235906      -1.32169428
Br      -5.90651274      -6.88789569       0.09289924
C       -2.71270094      -4.60467108      -2.78437028
C       -1.65069821      -5.48168566      -2.61168452
C       -1.09831251      -6.07767965      -3.74610582
C       -1.60442754      -5.79511689      -5.02501315
C       -2.67542062      -4.91162142      -5.19338996
C       -3.22685837      -4.31969766      -4.06907465
C       -4.32512286      -3.38427758      -3.94347108
C       -5.13816558      -2.81918947      -4.91202117
C       -6.14361805      -1.93613707      -4.50670554
C       -6.32698099      -1.62713887      -3.14905951
C       -5.50819144      -2.19324042      -2.17095756
C       -4.51163558      -3.06902930      -2.57862533
H       -1.15313988      -2.29719568      -2.54846480
H       -2.50606655      -1.14455510      -2.34548505
H       -3.15475802      -2.29494139      -0.20600130
H       -1.82145153      -3.41848928      -0.38238618
H       -4.72226363      -4.16716993       0.03691832
H       -3.41285663      -5.31707778      -0.14403314
H       -4.66794454      -6.46150048      -2.01866948
H       -6.00636486      -5.29311102      -1.80712406
H       -1.25328764      -5.70375479      -1.62649337
H       -0.26484094      -6.76949618      -3.64081492
H       -1.15730626      -6.27026450      -5.89536357
H       -3.05735550      -4.70196455      -6.18672000
H       -5.00759284      -3.05052433      -5.96389701
H       -6.79348905      -1.48266227      -5.25175698
H       -7.11749975      -0.93819848      -2.85862272
H       -5.65543241      -1.95007180      -1.12343483
C       -1.82802626       1.82802626       1.82802626
C       -0.94262057       2.67522142       2.73834139
C       -1.70806994       3.61475883       3.70772637
C       -0.68477010       4.42400255       4.54695564
C       -1.29927732       5.41826018       5.52845812
Br       0.12858142       6.32425907       6.50583155
C       -2.67188021       2.82777525       4.60208683
C       -2.38084352       1.83531584       5.52790903
C       -3.44081546       1.25530587       6.22597665
C       -4.76360084       1.66584184       5.99511490
C       -5.05129618       2.66710468       5.06203114
C       -4.00109108       3.24582754       4.36871207
C       -4.00070981       4.28842178       3.36373994
C       -5.05041888       5.00532286       2.81363448
C       -4.76241611       5.97534733       1.84869722
C       -3.43976068       6.21906130       1.44435740
C       -2.38011305       5.49706543       1.99521093
C       -2.67145105       4.53530656       2.95253261
H       -2.47536643       1.14253197       2.38090197
H       -2.42684519       2.42972169       1.13953982
H       -0.26807338       3.27543349       2.11219384
H       -0.29306266       2.00753287       3.32173146
H       -0.01387750       4.96954195       3.86909579
H       -0.04336001       3.72684272       5.10376481
H       -1.92223397       4.93820295       6.28767758
H       -1.86519846       6.21045558       5.03094590
H       -1.36111548       1.51183928       5.71058105
H       -3.24231878       0.47484169       6.95799158
H       -5.57430036       1.19874250       6.54989146
H       -6.07742029       2.97546375       4.89315601
H       -6.07638829       4.82743925       3.11818664
H       -5.57255437       6.54998546       1.40536847
H       -3.24113602       6.98038768       0.69279724
H       -1.36023356       5.69055014       1.67815533
C        1.82802626      -1.82802626       1.82802626
C        3.25484152      -1.81590927       1.28543259
C        4.26495287      -2.68768937       2.07791291
C        5.66795264      -2.55897624       1.42879941
C        6.77529754      -3.34386719       2.12683090
Br       8.45489657      -3.08155855       1.16505408
C        3.80805410      -4.14882423       2.14486397
C        3.60100978      -5.04113870       1.10191991
C        3.17441453      -6.33225402       1.41542942
C        2.96062235      -6.71439100       2.74954423
C        3.17187037      -5.81180496       3.79675667
C        3.59685921      -4.52997541       3.48879607
C        3.89392603      -3.40634001       4.35260548
C        3.84096517      -3.29613117       5.73227989
C        4.19238539      -2.07610397       6.31797131
C        4.59008372      -0.98545017       5.52764548
C        4.64254379      -1.09264201       4.13720362
C        4.29261032      -2.30579105       3.56088884
H        1.37198971      -2.82108054       1.80573011
H        1.75357954      -1.40813087       2.83439628
H        3.61358048      -0.77754492       1.26457531
H        3.23796343      -2.14689951       0.23746406
H        5.95517487      -1.49888826       1.39845211
H        5.61125424      -2.88252187       0.38019143
H        6.59766380      -4.42247234       2.12797836
H        6.96206374      -2.99761417       3.14692204
H        3.76275659      -4.75247586       0.06830336
H        3.00409078      -7.05302971       0.61803155
H        2.62673034      -7.72578827       2.97041571
H        3.00339368      -6.11950112       4.82314524
H        3.53653057      -4.13143165       6.35405196
H        4.15854307      -1.96947089       7.39989434
H        4.86027936      -0.04685992       6.00718167
H        4.95083106      -0.24573061       3.53237737
C       -0.00445707       0.01189536      -1.78238275
H       -0.66409135       0.67374010      -2.43557963
H        0.65740317      -0.63156657      -2.45157240
C       -0.90989263      -0.90692880      -0.91072765
C        0.90977584       0.90977584      -0.90977584
C       -0.00465871       1.77757030       0.00794375
H       -0.66225468       2.44313916      -0.64384735
H        0.64322798       2.43503045       0.67728295
C       -1.78241447       0.00034974      -0.00472694
H       -2.45427497      -0.65498947       0.64260836
H       -2.43311707       0.67328779      -0.65473579
C       -0.91132561       0.90220522       0.91563759
C       -0.01476271      -0.02253852       1.78660255
H       -0.67934791      -0.69751639       2.42135241
H        0.63392994       0.61504881       2.47327442
C        0.01484550      -1.77751727      -0.01636693
H        0.67870853      -2.42144646      -0.68295456
H       -0.62264859      -2.45592969       0.64226336
C        1.78714474       0.01002794       0.00389507
H        2.44202412       0.67113390       0.66197326
H        2.45385902      -0.65136977      -0.64189061
C        0.91606151      -0.90478549       0.90901405
