77
Properties=species:S:1:pos:R:3 pbc="F F F"
C        0.00000000       0.00000000       0.00000000
C        0.91710501       0.91710501      -0.91710501
N        0.84289291       0.50803738      -2.31403310
C       -0.41641398       0.86746438      -2.98038396
C       -0.57319676       2.36538542      -3.26428422
C        0.63959444       2.96116717      -3.96896467
Br       0.59535031       2.51417661      -5.87922241
C        1.95761235       2.50552266      -3.35605951
C        1.99002027       0.99782325      -3.09003179
H        1.92010806       0.75936011      -0.50768545
H        0.62581379       1.95394622      -0.73195051
H       -1.28090054       0.51906811      -2.40542001
H       -0.47255872       0.31365824      -3.92641515
H       -1.48788042       2.53072286      -3.84692989
H       -0.72041059       2.89443807      -2.31461544
H        0.57916321       4.05443969      -3.95946039
H        2.80575326       2.78081698      -3.99425971
H        2.10466535       3.03608149      -2.40673604
H        2.02370402       0.45572150      -4.04366746
H        2.92842763       0.73558394      -2.58414455
C       -0.91710501      -0.91710501      -0.91710501
N       -0.95972802      -2.28618412      -0.41905127
C       -1.76760047      -2.45979909       0.79596520
C       -3.27899556      -2.34607004       0.56859272
C       -3.76963050      -3.22288472      -0.57721107
Br      -3.91981461      -5.08679825       0.01786354
C       -2.87476206      -3.13744637      -1.80698609
C       -1.38706066      -3.23375413      -1.45706052
H       -0.42859308      -0.86320514      -1.89535541
H       -1.89265937      -0.42998335      -0.98906781
H       -1.46769650      -1.75026041       1.57436933
H       -1.54020865      -3.44664899       1.21934296
H       -3.80543168      -2.58520830       1.50086765
H       -3.52740078      -1.30210093       0.34085879
H       -4.79764587      -2.95393671      -0.84148071
H       -3.12868095      -3.91728620      -2.53486280
H       -3.05939677      -2.17916487      -2.30892125
H       -1.15285012      -4.25124546      -1.11899740
H       -0.78754185      -3.09444921      -2.36616506
C       -0.91710501       0.91710501       0.91710501
N       -0.28655565       1.17229670       2.20611105
C        0.83661905       2.11802320       2.15003021
C        0.42261302       3.57331789       1.90576800
C       -0.67446991       4.04053742       2.85471896
Br       0.09120040       4.47025704       4.60969268
C       -1.79274353       3.01770947       3.00874152
C       -1.26232669       1.59663146       3.21891716
H       -1.83141603       0.32566830       1.03006930
H       -1.15389770       1.81570431       0.34210851
H        1.56604612       1.82023344       1.38940026
H        1.38501663       2.05383446       3.09869684
H        1.30651365       4.21913764       1.97714835
H        0.05895179       3.67208625       0.87550847
H       -1.08442724       4.99638237       2.51225367
H       -2.45949256       3.28365038       3.83768702
H       -2.41069615       3.03478404       2.10200268
H       -0.79416084       1.52035235       4.20857979
H       -2.10428154       0.89280072       3.25107387
C        0.91710501      -0.91710501       0.91710501
N        1.36910832      -2.10013203       0.19572305
C        2.40767103      -1.83242287      -0.80865954
C        3.78133427      -1.49421279      -0.21907418
C        4.23926860      -2.50573469       0.82472300
Br       4.92708991      -4.11841545      -0.05675604
C        3.13540674      -2.87729837       1.80648940
C        1.80321677      -3.16596547       1.10869308
H        0.25544813      -1.18435235       1.74735315
H        1.72157692      -0.28653423       1.30359937
H        2.10199321      -1.03030900      -1.48871462
H        2.49914762      -2.71844753      -1.45008048
H        4.51365172      -1.40736970      -1.03124908
H        3.73320738      -0.50426620       0.25116934
H        5.10857955      -2.11829990       1.36618383
H        3.42297778      -3.74336438       2.41448778
H        2.99507582      -2.04479347       2.50761359
H        1.87936035      -4.10234166       0.54139098
H        1.02867922      -3.35637246       1.86310444
