85
Properties=species:S:1:pos:R:3 pbc="F F F"
C        0.00000000       0.00000000       0.00000000
C        0.91710501       0.91710501      -0.91710501
N        0.84289291       0.50803738      -2.31403310
C       -0.41641398       0.86746438      -2.98038396
C       -0.57319676       2.36538542      -3.26428422
C        0.63959444       2.96116717      -3.96896467
C        1.95761235       2.50552266      -3.35605951
C        1.99002027       0.99782325      -3.09003179
H        1.92010806       0.75936011      -0.50768545
H        0.62581379       1.95394622      -0.73195051
H       -1.28090054       0.51906811      -2.40542001
H       -0.47255872       0.31365824      -3.92641515
H       -1.48788042       2.53072286      -3.84692989
H       -0.72041059       2.89443807      -2.31461544
H        0.57916321       4.05443969      -3.95946039
H        2.80575326       2.78081698      -3.99425971
H        2.10466535       3.03608149      -2.40673604
H        2.02370402       0.45572150      -4.04366746
H        2.92842763       0.73558394      -2.58414455
C        0.60712758       2.63316029      -5.37073405
C        0.57993658       2.35845452      -6.54471591
Br       0.53597104       1.91427854      -8.44294527
C       -0.91710501      -0.91710501      -0.91710501
N       -1.29005760      -2.14635390      -0.22855190
C       -2.29532617      -1.96352721       0.82741903
C       -3.70518492      -1.65996336       0.30867541
C       -4.16542611      -2.64683736      -0.75746281
C       -3.08981477      -2.93150273      -1.79787702
C       -1.71880001      -3.19173481      -1.16734049
H       -0.28077448      -1.12240785      -1.78397129
H       -1.76200956      -0.30589629      -1.24380468
H       -1.99394669      -1.17740762       1.52776673
H       -2.32375535      -2.87784462       1.43408529
H       -4.40551882      -1.63700474       1.15275122
H       -3.71701795      -0.65065470      -0.12097027
H       -5.07175667      -2.27481373      -1.24649288
H       -3.36749285      -3.78361686      -2.42972025
H       -3.01296692      -2.06613830      -2.46837766
H       -1.73301057      -4.15267259      -0.63740982
H       -0.96969272      -3.31863706      -1.95982635
C       -4.59414444      -3.87567009      -0.14120740
C       -4.95319604      -4.90481749       0.37490651
Br      -5.53375210      -6.56886180       1.20941905
C       -0.91710501       0.91710501       0.91710501
N       -0.54644477       0.79698032       2.32153831
C        0.71137407       1.47094619       2.67186224
C        0.62462666       3.00109529       2.68000425
C       -0.55181500       3.51975949       3.49815180
C       -1.83984138       2.75337478       3.22597835
C       -1.62788627       1.23683627       3.21315277
H       -1.92404484       0.52783163       0.73527716
H       -0.86049843       1.93293284       0.51827925
H        1.52399536       1.16139913       2.00618381
H        1.02050881       1.12231867       3.66570481
H        1.57198351       3.41653815       3.04521770
H        0.51666678       3.35726020       1.64804950
H       -0.70178392       4.58696335       3.30431601
H       -2.61276320       3.00664652       3.96142023
H       -2.23318973       3.06445064       2.24984251
H       -1.40681120       0.88676134       4.22952044
H       -2.56772388       0.73826818       2.94216406
C       -0.23619070       3.47249036       4.90234086
C        0.02814465       3.43290246       6.07834920
Br       0.45555256       3.36889219       7.97985523
C        0.91710501      -0.91710501       0.91710501
N        1.33527915      -2.12051856       0.20916569
C        2.36025641      -1.88911441      -0.81793646
C        3.74997450      -1.56521861      -0.25872023
C        4.20866006      -2.56627293       0.79479330
C        3.11617499      -2.90072850       1.80229103
C        1.76685231      -3.17773986       1.13328313
H        0.26580896      -1.15784769       1.76349698
H        1.73931531      -0.29432914       1.27806607
H        2.05660548      -1.09373436      -1.50675226
H        2.42466550      -2.78776629      -1.44491712
H        4.46906244      -1.50576963      -1.08505974
H        3.72766600      -0.56646033       0.19451660
H        5.09418859      -2.18499348       1.31388122
H        3.39931251      -3.76098278       2.42053465
H        3.00305432      -2.05365685       2.49077171
H        1.81637411      -4.12515096       0.58156791
H        1.00270488      -3.34098001       1.90447123
C        4.68087212      -3.76969657       0.16045323
C        5.07634972      -4.77756386      -0.37080657
Br       5.71580355      -6.40720004      -1.22980874
