178
Properties=species:S:1:pos:R:3 pbc="F F F"
C        1.82748637       1.82748637      -1.82748637
N        3.18641373       1.90650978      -1.29910899
C        4.14424203       2.31016504      -2.33797349
C        4.08128841       3.79920452      -2.69388806
C        4.29307315       4.70179167      -1.46029355
C        3.24142191       4.27095600      -0.41666506
C        3.30103416       2.76842913      -0.11157123
C        5.76197021       4.68251338      -0.90966217
C        6.82326306       5.07976283      -1.95737798
C        6.78156770       6.57582383      -2.28843376
N        6.93959961       7.44644856      -1.11449062
C        5.96954116       7.08922045      -0.06719875
C        5.97235509       5.60285625       0.31026734
C        8.32251206       7.46080895      -0.64562591
H        1.32294382       2.79186111      -1.93140151
H        1.80313889       1.31532319      -2.79477955
H        3.99517262       1.71054330      -3.24528889
H        5.15555189       2.05606172      -1.99740530
H        4.80029330       4.02269497      -3.48669582
H        3.09883208       4.02322154      -3.12984468
H        4.05170254       5.72805317      -1.76223423
H        3.33620685       4.83841288       0.51257243
H        2.24381641       4.52298385      -0.79928607
H        4.25077313       2.53855429       0.38665871
H        2.53350587       2.52341411       0.63064341
H        5.99429623       3.66068654      -0.58739821
H        6.72517018       4.49461626      -2.87512990
H        7.81625568       4.82674417      -1.56419539
H        7.55023966       6.80635325      -3.03678631
H        5.83008224       6.81735239      -2.77781916
H        6.12457857       7.68914677       0.83654398
H        4.96885129       7.37077398      -0.41765992
H        6.93299855       5.34987283       0.77793005
H        5.22685728       5.42124521       1.08906607
H        9.02581446       7.57988983      -1.47644935
H        8.61695387       6.58329988      -0.06318487
C        8.57739943       8.62022143       0.16947846
C        8.79086760       9.59122938       0.85212837
Br       9.13602759      11.16126711       1.95591554
C       -1.82748637      -1.82748637      -1.82748637
N       -1.30674607      -1.89532496      -3.18996147
C       -1.81438137      -3.07698719      -3.90101200
C       -3.27369765      -2.95004957      -4.35063376
C       -3.50235995      -1.71110163      -5.24169679
C       -2.99504401      -0.49481421      -4.43918474
C       -1.54547262      -0.66842171      -3.96714019
C       -2.85653028      -1.83124514      -6.66637034
C       -3.33356271      -3.06428381      -7.46255734
C       -4.78305692      -2.92234585      -7.94042253
N       -5.02287368      -1.72246119      -8.75520392
C       -4.55567212      -0.51566702      -8.05462122
C       -3.10658773      -0.59873180      -7.55962448
C       -4.46323951      -1.86975717     -10.09595024
H       -2.84956837      -1.44716806      -1.74947001
H       -1.77946874      -2.80228754      -1.33148535
H       -1.70033336      -3.97319407      -3.27747738
H       -1.17543805      -3.25986647      -4.77371438
H       -3.59070625      -3.87036743      -4.84861041
H       -3.91706284      -2.87030824      -3.46452722
H       -4.58580224      -1.59282196      -5.36336574
H       -3.08718940       0.43358603      -5.00844393
H       -3.64541618      -0.35470951      -3.56596063
H       -0.88083349      -0.68225996      -4.83957527
H       -1.24360263       0.22149613      -3.40417006
H       -1.77122504      -1.92692357      -6.54423237
H       -3.22226366      -3.98622463      -6.88642806
H       -2.67932606      -3.19358954      -8.33427963
H       -5.07447058      -3.82208102      -8.49682762
H       -5.45475496      -2.89687005      -7.07362877
H       -4.66978221       0.37509388      -8.68249303
H       -5.21960986      -0.33812125      -7.19955408
H       -2.43116925      -0.65001522      -8.42375686
H       -2.83907632       0.33168051      -7.05164061
H       -4.70898031      -2.84571560     -10.52745774
H       -3.38120458      -1.72392386     -10.15831018
C       -5.07326739      -0.94200499     -11.01287002
C       -5.58416574      -0.16501254     -11.78079033
Br      -6.41024516       1.09131854     -13.02245253
C       -1.82748637       1.82748637       1.82748637
N       -1.62913198       1.52150419       3.24139633
C       -2.05885303       2.63578762       4.09773991
C       -3.57998757       2.76547876       4.22891464
C       -4.23131342       1.46911345       4.75473150
C       -3.78735583       0.33870030       3.80298683
C       -2.26178352       0.25998648       3.65926452
C       -3.91798061       1.17300209       6.26316306
C       -4.32845272       2.31366152       7.21828963
C       -5.84943499       2.42155151       7.37483879
N       -6.48674634       1.17916254       7.83462991
C       -6.10270811       0.04818119       6.97507106
C       -4.58906853      -0.11272036       6.78859584
C       -6.23157050       0.94423300       9.25314342
H       -2.85673883       1.71236044       1.47710717
H       -1.48803004       2.83978021       1.58543138
H       -1.64160801       3.58140114       3.72799565
H       -1.61416543       2.50315023       5.09170324
H       -3.82700353       3.62569121       4.85698936
H       -4.00678586       3.00017992       3.24493253
H       -5.31652910       1.58160452       4.64385633
H       -4.17718829      -0.63267288       4.11753189
H       -4.23494782       0.51493285       2.81620565
H       -1.82369355      -0.04004779       4.61902296
H       -2.00874483      -0.55570235       2.97323409
H       -2.83505096       1.03856961       6.36876041
H       -3.91993405       3.27574531       6.89923698
H       -3.87881770       2.12650039       8.20187714
H       -6.08916401       3.24544233       8.05877288
H       -6.29771220       2.71103698       6.41650461
H       -6.51999953      -0.89301400       7.35019582
H       -6.57433648       0.18838079       5.99456792
H       -4.13186015      -0.37789984       7.75098102
H       -4.38893394      -0.96940235       6.13950482
H       -6.38497998       1.85358658       9.84358708
H       -5.23860137       0.54564695       9.47919030
C       -7.19584187       0.02782159       9.80447893
C       -8.00341915      -0.73967296      10.26622242
Br      -9.30920331      -1.98064674      11.01282259
C        1.82748637      -1.82748637       1.82748637
N        3.22434628      -1.76015140       1.40753481
C        4.13074090      -2.17387716       2.48776251
C        4.16303994      -3.68751819       2.72382284
C        4.54050372      -4.46763116       1.44702348
C        3.53900688      -4.03359260       0.35644349
C        3.49844501      -2.51095576       0.17163374
C        6.04029349      -4.29247790       1.02137438
C        7.04831707      -4.69274478       2.11934201
C        7.10419440      -6.20972512       2.33190577
N        7.42111951      -6.96701262       1.11240666
C        6.50700351      -6.59966036       0.01929649
C        6.41678552      -5.09145929      -0.24330080
C        8.83203222      -6.83847054       0.75844416
H        1.39708067      -2.83248069       1.81664507
H        1.68833613      -1.39943607       2.82546943
H        3.86502422      -1.66343043       3.42255015
H        5.14071750      -1.81710413       2.25119728
H        4.83595380      -3.92012310       3.55360720
H        3.17207111      -4.02001145       3.05981574
H        4.36173375      -5.53043674       1.64981945
H        3.74980275      -4.51438306      -0.60213851
H        2.53930273      -4.39070612       0.63607746
H        4.46112556      -2.17002111      -0.22847795
H        2.77172721      -2.26476265      -0.61021329
H        6.21197308      -3.23310100       0.79730690
H        6.83365516      -4.19368540       3.06757579
H        8.04415391      -4.33413154       1.82890978
H        7.83040065      -6.44193812       3.12104045
H        6.14139927      -6.56164983       2.72220469
H        6.77840608      -7.11025101      -0.91147574
H        5.50907794      -6.98371953       0.26448772
H        7.38610401      -4.72923518      -0.61039785
H        5.71990930      -4.90362041      -1.06449330
H        9.47793219      -6.97160948       1.63261197
H        9.09689750      -5.89654843       0.26999269
C        9.24171356      -7.90477364      -0.11834481
C        9.58482169      -8.79780249      -0.85265557
Br      10.13959851     -10.24175460      -2.03997396
C       -0.00445707       0.01189536      -1.78238275
H       -0.66409135       0.67374010      -2.43557963
H        0.65740317      -0.63156657      -2.45157240
C       -0.90989263      -0.90692880      -0.91072765
C        0.90977584       0.90977584      -0.90977584
C       -0.00465871       1.77757030       0.00794375
H       -0.66225468       2.44313916      -0.64384735
H        0.64322798       2.43503045       0.67728295
C       -1.78241447       0.00034974      -0.00472694
H       -2.45427497      -0.65498947       0.64260836
H       -2.43311707       0.67328779      -0.65473579
C       -0.91132561       0.90220522       0.91563759
C       -0.01476271      -0.02253852       1.78660255
H       -0.67934791      -0.69751639       2.42135241
H        0.63392994       0.61504881       2.47327442
C        0.01484550      -1.77751727      -0.01636693
H        0.67870853      -2.42144646      -0.68295456
H       -0.62264859      -2.45592969       0.64226336
C        1.78714474       0.01002794       0.00389507
H        2.44202412       0.67113390       0.66197326
H        2.45385902      -0.65136977      -0.64189061
C        0.91606151      -0.90478549       0.90901405
