149
Properties=species:S:1:pos:R:3 pbc="F F F"
C        0.00000000       0.00000000       0.00000000
C        0.91758235       0.91758235      -0.91758235
N        2.27650971       0.99660575      -0.38920496
C        3.23433800       1.40026102      -1.42806947
C        3.17138438       2.88930049      -1.78398403
C        3.38316912       3.79188765      -0.55038952
C        2.33151788       3.36105197       0.49323897
C        2.39113013       1.85852511       0.79833279
C        4.85206619       3.77260935       0.00024185
C        5.91335904       4.16985880      -1.04747395
C        5.87166368       5.66591981      -1.37852973
N        6.02969559       6.53654453      -0.20458660
C        5.05963713       6.17931643       0.84270528
C        5.06245107       4.69295223       1.22017136
C        7.41260804       6.55090493       0.26427812
Br       7.75829435       8.12333682       1.36974846
H        0.41303979       1.88195709      -1.02149748
H        0.89323486       0.40541916      -1.88487553
H        3.08526859       0.80063928      -2.33538487
H        4.24564787       1.14615769      -1.08750127
H        3.89038928       3.11279095      -2.57679180
H        2.18892806       3.11331752      -2.21994065
H        3.14179851       4.81814915      -0.85233021
H        2.42630283       3.92850886       1.42247645
H        1.33391238       3.61307982       0.11061796
H        3.34086911       1.62865027       1.29656273
H        1.62360184       1.61351009       1.54054743
H        5.08439221       2.75078252       0.32250582
H        5.81526616       3.58471224      -1.96522588
H        6.90635165       3.91684014      -0.65429136
H        6.64033563       5.89644923      -2.12688229
H        4.92017822       5.90744837      -1.86791513
H        5.21467454       6.77924275       1.74644800
H        4.05894727       6.46086996       0.49224410
H        6.02309453       4.43996880       1.68783407
H        4.31695325       4.51134119       1.99897010
H        8.11591043       6.66998581      -0.56654533
H        7.70704985       5.67339585       0.84671915
C       -0.91758235      -0.91758235      -0.91758235
N       -0.37884566      -2.27144870      -1.01202606
C       -1.41316501      -3.23444372      -1.41505976
C       -1.78176556      -3.16231089      -2.90059245
C       -0.55392630      -3.35664208      -3.81487791
C        0.48461702      -2.30001219      -3.38393572
C        0.80248356      -2.36932978      -1.88447622
C        0.00876172      -4.82108726      -3.81210815
C       -1.03351517      -5.88766450      -4.20951212
C       -1.37714338      -5.83652782      -5.70244201
N       -0.20912645      -5.97785814      -6.58384213
C        0.83314000      -5.00218750      -6.22720078
C        1.22278007      -5.01398636      -4.74402564
C        0.27082613      -7.35672092      -6.61334005
Br       1.36615041      -7.68055161      -8.19748152
H       -1.03349030      -0.40608872      -1.87691535
H       -1.88081335      -0.90532205      -0.39739416
H       -2.31671918      -3.09768910      -0.80688446
H       -1.06232058      -4.24496103      -1.17202522
H       -2.57050918      -3.88594663      -3.12351622
H       -2.22751116      -2.18167108      -3.11300399
H       -0.86621522      -3.10942225      -4.83664040
H        1.40991423      -2.38256773      -3.95968173
H        0.09185094      -1.30355969      -3.62466549
H        1.31028047      -3.31679188      -1.66644523
H        1.54041948      -1.59776324      -1.63922073
H        0.34126275      -5.05906059      -2.79487107
H       -1.94720954      -5.80185090      -3.61614383
H       -0.63021757      -6.87942596      -3.96783963
H       -2.12108884      -6.60940594      -5.93317236
H       -1.87620600      -4.88715222      -5.93218350
H        1.73316773      -5.14493651      -6.83570050
H        0.47226467      -4.00214747      -6.49769032
H        1.70028969      -5.97279039      -4.50272857
H        1.99695724      -4.26363394      -4.56264765
H       -0.55520290      -8.06581500      -6.73142367
H        0.86280938      -7.65350191      -5.74303402
C       -0.91758235       0.91758235       0.91758235
N       -2.31142079       0.86527738       0.48562226
C       -3.22330446       1.27760815       1.56175589
C       -3.24511841       2.78947382       1.81007668
C       -3.60556613       3.58315387       0.53672630
C       -2.59866786       3.14980873      -0.54914570
C       -2.56909024       1.62845823      -0.74622602
C       -5.10316624       3.42393764       0.09732981
C       -6.11692955       3.82350676       1.19025548
C       -6.16209804       5.33909998       1.41491520
N       -6.46267359       6.10898360       0.19916954
C       -5.54258123       5.74306505      -0.88939799
C       -5.46258768       4.23637713      -1.16373288
C       -7.87161364       5.99504984      -0.16742863
Br      -8.40546126       7.45548132      -1.34905987
H       -0.47885723       1.91903100       0.91860613
H       -0.79022848       0.48020693       1.91309415
H       -2.96954626       0.75731252       2.49443396
H       -4.23418402       0.93117209       1.31395072
H       -3.92295048       3.02081958       2.63620197
H       -2.25426869       3.11097218       2.15694536
H       -3.41975471       4.64273925       0.74978392
H       -2.79755554       3.64019058      -1.50541090
H       -1.59841411       3.49631645      -0.25835632
H       -3.53119167       1.29881158      -1.15704661
H       -1.83796675       1.38268544      -1.52408770
H       -5.28168333       2.36789676      -0.13691119
H       -5.91424047       3.31491024       2.13605356
H       -7.11323909       3.47555613       0.88868794
H       -6.89288528       5.57082948       2.19995239
H       -5.19971041       5.67981562       1.81601568
H       -5.80205702       6.26351872      -1.81810645
H       -4.54359911       6.11681436      -0.63284036
H       -6.43177512       3.88522616      -1.54177202
H       -4.76049819       4.04952521      -1.98069905
H       -8.52361882       6.12634782       0.70247492
H       -8.14015417       5.05940056      -0.66582819
C        0.91758235      -0.91758235       0.91758235
N        0.36869516      -2.26619949       1.02742578
C        1.39844113      -3.23430812       1.42991924
C        1.77972140      -3.15316523       2.91178228
C        0.55785007      -3.33006662       3.83752961
C       -0.47558954      -2.26852069       3.40639973
C       -0.80622998      -2.34737517       1.91017725
C       -0.01667494      -4.78984660       3.85126202
C        1.02014385      -5.86164110       4.24890684
C        1.37634386      -5.80122936       5.73854000
N        0.21445153      -5.92588759       6.63048760
C       -0.82275993      -4.94466389       6.27434433
C       -1.22457081      -4.96528605       4.79451669
C       -0.27638762      -7.30050472       6.67511774
Br      -1.36133546      -7.60255718       8.27066099
H        1.04544918      -0.39930444       1.87174076
H        1.87660481      -0.91739155       0.38953320
H        2.29808034      -3.10985639       0.81335601
H        1.03745901      -4.24386305       1.19798477
H        2.56437546      -3.88138436       3.13421220
H        2.23510677      -2.17450795       3.11257152
H        0.88045552      -3.07714206       4.85468029
H       -1.39679631      -2.33886196       3.99026958
H       -0.07282116      -1.27339033       3.63580507
H       -1.32343992      -3.29239615       1.70400042
H       -1.53987401      -1.57182366       1.66461484
H       -0.35937941      -5.03332373       2.83872459
H        1.92963114      -5.78808993       3.64748320
H        0.60687493      -6.85200243       4.01860581
H        2.11586791      -6.57825894       5.96954030
H        1.88493111      -4.85412897       5.95648164
H       -1.71891880      -5.07513576       6.89125233
H       -0.45160837      -3.94544521       6.53373628
H       -1.71177707      -5.92208361       4.56492273
H       -1.99410422      -4.21013463       4.61329393
H        0.54481170      -8.01533582       6.79229404
H       -0.87783430      -7.59947944       5.81208141
