194
Properties=species:S:1:pos:R:3 pbc="F F F"
C        1.82591506       1.82591506      -1.82591506
N        2.44960013       2.89959017      -1.05751764
C        3.59361429       3.48310835      -1.77305298
C        3.19743941       4.34087446      -2.97847884
C        2.18836343       5.43505501      -2.60977990
C        1.03155347       4.85196088      -1.79069002
C        1.51780654       3.95963750      -0.64403633
C        2.82392546       6.53468559      -1.92276652
C        3.34776951       7.44102421      -1.35652783
C        3.94988628       8.48278603      -0.70566801
C        4.47372615       9.38911828      -0.13942285
C        5.10929461      10.48875182       0.54759760
C        6.31335476      11.02113876      -0.23769994
C        5.89692692      11.89359038      -1.42669741
N        4.97579747      12.98647617      -1.08055783
C        3.78986097      12.45084926      -0.39642216
C        4.11637058      11.61792317       0.84676700
C        5.59507162      14.06654649      -0.31803620
H        1.20941061       2.16547127      -2.66266570
H        2.57765390       1.12764487      -2.20976495
H        4.28041404       2.69079297      -2.09646964
H        4.17313404       4.09117556      -1.06630845
H        4.09968958       4.78066788      -3.42218780
H        2.75786539       3.69655464      -3.75062196
H        1.76934937       5.83169373      -3.54412917
H        0.40446982       5.65465235      -1.38219117
H        0.38306811       4.26731450      -2.45502650
H        2.02260840       4.58311105       0.10604090
H        0.65141971       3.54268053      -0.11926828
H        5.47926201      10.10543221       1.50780749
H        6.93561364      10.19233936      -0.59901402
H        6.94894678      11.60712165       0.43753893
H        6.79514634      12.27641642      -1.92522397
H        5.40874337      11.26243333      -2.18108407
H        3.11102208      13.26818613      -0.12240397
H        3.22367688      11.83759573      -1.10920360
H        4.54276577      12.27265597       1.61751456
H        3.18633360      11.21403526       1.26632038
H        6.18641764      13.73723070       0.54028277
H        4.84712280      14.78687962       0.02957792
C        6.45851398      14.86052402      -1.15330082
C        7.18164695      15.52548020      -1.85283494
Br       8.35089181      16.60065810      -2.98392244
C       -1.82591506      -1.82591506      -1.82591506
N       -1.96944424      -1.26912084      -3.16814286
C       -2.44682907      -2.27843764      -4.12450891
C       -3.91810220      -2.66088501      -3.93780551
C       -4.84470966      -1.43913643      -3.94935225
C       -4.31126099      -0.34533318      -3.01761021
C       -2.81924509      -0.07049644      -3.23173885
C       -5.05121711      -0.94120605      -5.28895440
C       -5.22143186      -0.53081069      -6.39307899
C       -5.41707065      -0.05908445      -7.66218523
C       -5.58727824       0.35131607      -8.76630511
C       -5.79378166       0.84924891     -10.10591607
C       -6.25437298      -0.26369303     -11.05412746
C       -7.73356327      -0.61729751     -10.86635392
N       -8.64363540       0.53584687     -10.93504294
C       -8.23387562       1.56204120      -9.96529797
C       -6.78174240       2.02138803     -10.12717238
C       -8.79679079       1.09295142     -12.27581495
H       -2.76899441      -1.97536200      -1.29319117
H       -1.28621353      -2.77889869      -1.84995151
H       -1.82321952      -3.17934758      -4.06510955
H       -2.29526238      -1.89388062      -5.14147506
H       -4.20891126      -3.37405415      -4.71957986
H       -4.03523104      -3.18769091      -2.98212004
H       -5.82263865      -1.75785726      -3.56467636
H       -4.87327792       0.58719859      -3.15523401
H       -4.47796882      -0.65041656      -1.97702372
H       -2.67821158       0.39496317      -4.21643014
H       -2.48624759       0.68933463      -2.51645555
H       -4.82665788       1.22020689     -10.47043575
H       -5.64695932      -1.16691995     -10.91308775
H       -6.08649841       0.05746064     -12.08949172
H       -8.01546666      -1.38743262     -11.59388745
H       -7.86597802      -1.09818844      -9.88809431
H       -8.90234433       2.42981363     -10.02908148
H       -8.38076119       1.16350733      -8.95322234
H       -6.67746980       2.55827195     -11.07870933
H       -6.54080128       2.74462380      -9.33787099
H       -7.85692773       1.27647134     -12.80290918
H       -9.37282155       2.02403920     -12.25564215
C       -9.59219255       0.22770153     -13.10784779
C      -10.25834152      -0.49694526     -13.80467530
Br     -11.33544807      -1.66863783     -14.93138645
C       -1.82591506       1.82591506       1.82591506
N       -1.72682142       1.44721532       3.23267121
C       -2.21974482       2.51379663       4.11623417
C       -3.74149694       2.68514155       4.09015423
C       -4.48153910       1.37337765       4.37828159
C       -3.91881400       0.23397744       3.52141293
C       -2.38825512       0.17472009       3.55850516
C       -4.45282105       1.04452147       5.78403505
C       -4.42915960       0.77347911       6.94268284
C       -4.40195164       0.46192976       8.27445892
C       -4.37828302       0.19088254       9.43310172
C       -4.34955958      -0.13797434      10.83886358
C       -4.84132668       1.03136737      11.69949941
C       -6.36699363       1.17325344      11.67696764
N       -7.09335025      -0.06115454      12.01063576
C       -6.66618014      -1.15439122      11.12534347
C       -5.15559970      -1.40708396      11.13901101
C       -7.00385181      -0.44153011      13.41733262
H       -2.83825377       1.78444892       1.41484489
H       -1.42458996       2.83145778       1.65901599
H       -1.73886562       3.46678602       3.86202500
H       -1.89397713       2.29515227       5.14148866
H       -4.03120576       3.45911194       4.81222756
H       -4.04568543       3.05627323       3.10308333
H       -5.53360692       1.51456965       4.09699570
H       -4.32527316      -0.73177252       3.84781269
H       -4.25131958       0.36939700       2.48469253
H       -2.06554931      -0.12919318       4.56332241
H       -2.04253909      -0.63077594       2.90160535
H       -3.30332140      -0.33461439      11.10817972
H       -4.38660217       1.97335422      11.36701062
H       -4.50608173       0.87957074      12.73287703
H       -6.66243045       1.99677986      12.33757642
H       -6.68258545       1.49427179      10.67540354
H       -7.19520982      -2.07965102      11.38605338
H       -6.98868970      -0.92076314      10.10254964
H       -4.86315464      -1.79025733      12.12500987
H       -4.91442417      -2.19804799      10.41767229
H       -5.99063654      -0.43472427      13.82745329
H       -7.44344897      -1.42942860      13.59040413
C       -7.80448365       0.42759980      14.24025537
C       -8.47501282       1.15549610      14.92945318
Br      -9.55920177       2.33244285      16.04382774
C        1.82591506      -1.82591506       1.82591506
N        2.93917126      -2.39553662       1.07200007
C        4.00094494      -2.88630517       1.96252551
C        3.63188633      -4.16584099       2.71906540
C        3.16745061      -5.28566731       1.78008043
C        2.11942842      -4.76389910       0.79087685
C        2.54467041      -3.45049950       0.12631047
C        4.28031781      -5.90314953       1.09791022
C        5.19756380      -6.41209528       0.53566246
C        6.25186735      -6.99708140      -0.11060844
C        7.16910899      -7.50602021      -0.67286193
C        8.28198477      -8.12350121      -1.35503715
C        9.36438631      -8.57630053      -0.36849338
C        8.98578426      -9.86867753       0.36275291
N        8.59550933     -10.97338621      -0.52606407
C        7.50385393     -10.54692486      -1.41364641
C        7.82695638      -9.29442375      -2.23385338
C        9.70544595     -11.55186622      -1.27765784
H        1.17345518      -2.56439796       2.29969444
H        2.18421822      -1.13448827       2.59635723
H        4.28351067      -2.10493286       2.67923312
H        4.90378205      -3.06320092       1.36363508
H        4.49189993      -4.49411557       3.31652976
H        2.82846715      -3.94357960       3.43299524
H        2.69006302      -6.06047923       2.39463001
H        1.91546299      -5.51180058       0.01404977
H        1.17193259      -4.61102709       1.32244943
H        3.39516490      -3.64521514      -0.54070150
H        1.74470426      -3.10726203      -0.53859778
H        8.72545130      -7.36416761      -2.01273218
H        9.56676914      -7.79007531       0.37012256
H       10.30324491      -8.72990227      -0.91461768
H        9.80976999     -10.16432023       1.02269650
H        8.14681291      -9.66434600       1.04110187
H        7.22482484     -11.36560404      -2.08881669
H        6.60996103     -10.36406399      -0.80354881
H        8.62150260      -9.52984882      -2.95344425
H        6.94770806      -9.01367798      -2.82733757
H       10.34366752     -10.82166018      -1.78196214
H        9.34910626     -12.27453673      -2.01921849
C       10.55261487     -12.34265484      -0.42293089
C       11.26211885     -13.00494032       0.29290293
Br      12.40932677     -14.07579991       1.45034567
C       -0.00445707       0.01189536      -1.78238275
H       -0.66409135       0.67374010      -2.43557963
H        0.65740317      -0.63156657      -2.45157240
C       -0.90989263      -0.90692880      -0.91072765
C        0.90977584       0.90977584      -0.90977584
C       -0.00465871       1.77757030       0.00794375
H       -0.66225468       2.44313916      -0.64384735
H        0.64322798       2.43503045       0.67728295
C       -1.78241447       0.00034974      -0.00472694
H       -2.45427497      -0.65498947       0.64260836
H       -2.43311707       0.67328779      -0.65473579
C       -0.91132561       0.90220522       0.91563759
C       -0.01476271      -0.02253852       1.78660255
H       -0.67934791      -0.69751639       2.42135241
H        0.63392994       0.61504881       2.47327442
C        0.01484550      -1.77751727      -0.01636693
H        0.67870853      -2.42144646      -0.68295456
H       -0.62264859      -2.45592969       0.64226336
C        1.78714474       0.01002794       0.00389507
H        2.44202412       0.67113390       0.66197326
H        2.45385902      -0.65136977      -0.64189061
C        0.91606151      -0.90478549       0.90901405
