189
Properties=species:S:1:pos:R:3 pbc="F F F"
C        0.00000000       0.00000000       0.00000000
C        0.88185052       0.88185052      -0.88185052
C        2.21238737       0.52315087      -1.10624113
C        3.02383842       1.32732879      -1.90996706
C        2.48761627       2.48294805      -2.48708747
C        1.15376577       2.84163360      -2.26458845
C        0.35012877       2.03794721      -1.45417976
S        3.48474702       3.50673651      -3.54757547
O        2.60195024       4.08267918      -4.54527925
O        4.26543177       4.34955212      -2.66170452
C        4.61326683       2.46381902      -4.44032700
C        5.98512739       2.62027930      -4.28247369
C        6.86362626       1.77128869      -4.97079324
C        6.41033635       0.75157042      -5.83698302
C        5.00787637       0.64621277      -5.97791899
C        4.11565966       1.48572201      -5.29489086
C        7.35838720      -0.16551842      -6.55595857
C        6.90421600      -1.24724559      -7.34276477
C        7.78102451      -2.12167829      -8.00009557
C        9.15317721      -1.93678853      -7.87967872
C        9.65193659      -0.87370434      -7.13454857
C        8.76117997      -0.00679747      -6.48465225
S       10.27883836      -3.06658862      -8.66333470
O        9.49599007      -4.13589176      -9.25357978
O       11.16326042      -2.24913045      -9.47328358
C       11.27450079      -3.83513460      -7.40384495
C       10.74253845      -4.08460094      -6.13439518
C       11.55486835      -4.65387306      -5.15101945
C       12.88138131      -4.97449480      -5.44478881
C       13.40828387      -4.73143017      -6.71376753
C       12.60414872      -4.15479235      -7.69840026
Br      13.97474082      -5.74534155      -4.10907687
H        2.62463954      -0.37703795      -0.65614737
H        4.06179312       1.04445217      -2.06449125
H        0.73862538       3.74327604      -2.71159884
H       -0.68452666       2.32081494      -1.27523928
H        6.38985798       3.39408547      -3.63204940
H        7.92241760       1.94136471      -4.79984721
H        4.55899721      -0.09405288      -6.63444787
H        3.04496345       1.36740952      -5.44600942
H        5.84481588      -1.45055121      -7.47089612
H        7.37545999      -2.93712437      -8.59635853
H       10.72344353      -0.70309853      -7.05164557
H        9.21065053       0.80632164      -5.92133908
H        9.70760517      -3.85270411      -5.89627258
H       11.14631638      -4.84711187      -4.16188422
H       14.43988174      -4.98617165      -6.94473018
H       13.01564350      -3.96334676      -8.68790193
C       -0.88185052      -0.88185052      -0.88185052
C       -2.26621259      -0.87493069      -0.70063608
C       -3.07705617      -1.68126716      -1.50281093
C       -2.48848115      -2.48337071      -2.48579993
C       -1.10156276      -2.48892753      -2.66949753
C       -0.29601824      -1.68671628      -1.85952122
S       -3.49776518      -3.49163075      -3.54966307
O       -2.83059916      -3.56267513      -4.83663437
O       -3.79285096      -4.69259030      -2.79124715
C       -5.03147719      -2.64309473      -3.84284092
C       -6.23418450      -3.21216670      -3.44152919
C       -7.43429413      -2.51838459      -3.65302947
C       -7.47789825      -1.24920410      -4.27178745
C       -6.23070871      -0.72287528      -4.67842414
C       -5.02134526      -1.40276495      -4.47216232
C       -8.76646097      -0.50485164      -4.47751473
C       -8.80023260       0.80524525      -5.00474782
C       -9.99551499       1.51653556      -5.18046235
C      -11.20292064       0.92896247      -4.82210924
C      -11.22665606      -0.36729245      -4.31883232
C      -10.02208679      -1.06598591      -4.15096206
S      -12.72194297       1.83575100      -4.98939247
O      -12.39032162       3.18462483      -5.40798129
O      -13.59982375       0.99769141      -5.78528120
C      -13.46224119       1.99782942      -3.37879937
C      -12.65996397       2.10561825      -2.23798697
C      -13.26391698       2.19350764      -0.98160541
C      -14.65589716       2.18107945      -0.87685762
C      -15.45470616       2.08060127      -2.01651635
C      -14.85716280       1.98378357      -3.27437739
Br     -15.46636074       2.30106428       0.82682032
H       -2.71945305      -0.24869236       0.06439646
H       -4.15185013      -1.67747701      -1.34140940
H       -0.64443506      -3.11637569      -3.43268950
H        0.78260852      -1.69673980      -1.99739628
H       -6.25979403      -4.19099089      -2.96520792
H       -8.33790057      -3.01433575      -3.31139320
H       -6.15829974       0.23845239      -5.17954485
H       -4.08975084      -0.95610250      -4.81252906
H       -7.89115189       1.32310195      -5.29711084
H       -9.96283470       2.52271870      -5.59457816
H      -12.16696519      -0.84820364      -4.05682175
H      -10.10561860      -2.07527107      -3.75742158
H      -11.57539176       2.13042075      -2.30620263
H      -12.64409995       2.27474482      -0.09173360
H      -16.53910004       2.07652614      -1.93586636
H      -15.48022222       1.90346742      -4.16344386
C       -0.88185052       0.88185052       0.88185052
C       -0.51084115       1.12529286       2.20564536
C       -1.31493253       1.92910119       3.01710054
C       -2.48294266       2.48713980       2.48756934
C       -2.85399644       2.24555145       1.16043994
C       -2.05023339       1.43514417       0.35687818
S       -3.50744507       3.54732133       3.48429260
O       -4.10449397       4.52845569       2.59695900
O       -4.33138395       2.66096607       4.28433839
C       -2.46213347       4.46441263       4.59086675
C       -2.60142830       4.32036001       5.96609207
C       -1.75050347       5.02804342       6.82716130
C       -0.74579624       5.90040728       6.35268629
C       -0.65774858       6.02662614       4.94763341
C       -1.49940674       5.32418430       4.07268148
C        0.17364977       6.64029266       7.28218446
C        1.24124695       7.43396721       6.80701492
C        2.11794258       8.11093150       7.66645288
C        1.94980129       8.00399563       9.04187307
C        0.90087204       7.25270538       9.56094748
C        0.03146095       6.58310096       8.68739475
S        3.08318766       8.81294552      10.14582658
O        4.13690824       9.40622348       9.34436284
O        2.26656420       9.62365352      11.03032422
C        3.87704298       7.57349250      11.14676162
C        4.13489501       6.30097359      10.62625412
C        4.72432309       5.33329295      11.44304489
C        5.05642881       5.64563339      12.76247075
C        4.80492636       6.91769568      13.27785191
C        4.20821104       7.88664349      12.46932417
Br       5.85454135       4.33109973      13.86191776
H        0.39894483       0.69000159       2.61269220
H       -1.02222109       2.09852448       4.04999097
H       -3.76523328       2.67771077       0.75055621
H       -2.34262255       1.24134515      -0.67244015
H       -3.36324115       3.66593757       6.38681413
H       -1.90676898       4.86720273       7.88965782
H        0.06996463       6.68627704       4.48307978
H       -1.39480699       5.46448575       2.99908965
H        1.43121579       7.55236378       5.74401279
H        2.92199394       8.71165621       7.24503190
H        0.74322233       7.18003458      10.63517833
H       -0.77014525       6.01584503       9.15232097
H        3.89413724       6.04856744       9.59674344
H        4.92416259       4.34182083      11.04343051
H        5.06856962       7.16316078      14.30384911
H        4.01019331       8.87853540      12.87185658
C        0.88185052      -0.88185052       0.88185052
C        0.48844827      -2.19198958       1.16134151
C        1.29004368      -3.00192265       1.96916793
C        2.48492841      -2.48878030       2.48394308
C        2.88088486      -1.17683722       2.20226574
C        2.07166249      -0.36994623       1.40064702
S        3.54696278      -3.50839156       3.48370466
O        4.91280382      -3.08988810       3.22721674
O        2.98891393      -3.46566405       4.82211043
C        3.43359672      -5.18329118       2.90052495
C        2.96238825      -6.18621516       3.73927698
C        2.85075684      -7.49812542       3.25682593
C        3.20770284      -7.85402318       1.93716379
C        3.69899014      -6.80226435       1.13075364
C        3.81456097      -5.48452483       1.59718671
C        3.06722848      -9.25855923       1.42303964
C        3.32931089      -9.59426408       0.07616021
C        3.18046058     -10.89756170      -0.41858050
C        2.75363372     -11.91015431       0.43227939
C        2.50322323     -11.63685638       1.77270121
C        2.65878708     -10.32798039       2.25226729
S        2.50959543     -13.55645621      -0.19046720
O        2.71617141     -13.52355522      -1.62604854
O        3.30052683     -14.42528614       0.66160058
C        0.80145833     -13.99983761       0.04191520
C       -0.19982205     -13.02596750      -0.03381276
C       -1.52925092     -13.39148587       0.18977980
C       -1.84606768     -14.72023535       0.47750766
C       -0.84672622     -15.69166886       0.54567859
C        0.48479927     -15.33124814       0.33170921
Br      -3.64761953     -15.20775807       0.77833760
H       -0.44111135      -2.58697793       0.75788238
H        0.96481963      -4.01498601       2.19093091
H        3.80949199      -0.77754637       2.60646189
H        2.37582629       0.65219161       1.18789288
H        2.67869933      -5.96936210       4.76793141
H        2.47055280      -8.23346837       3.95960835
H        4.01730701      -6.97560801       0.10647718
H        4.20708902      -4.71409491       0.93719846
H        3.65849528      -8.84785555      -0.64119004
H        3.39981937     -11.10024377      -1.46536897
H        2.19171787     -12.42498384       2.45528887
H        2.45201729     -10.17797180       3.30832216
H        0.03121452     -11.99052857      -0.27056944
H       -2.31068917     -12.63719693       0.13458098
H       -1.09365726     -16.72785763       0.76423990
H        1.26477809     -16.08867608       0.38674450
