194
Properties=species:S:1:pos:R:3 pbc="F F F"
C        1.77696357       1.77696357      -1.77696357
C        1.56426810       3.11031717      -2.03337631
C        2.63863100       3.53900976      -2.85946575
C        3.41894125       2.41802551      -3.08930489
O        2.89441974       1.34821995      -2.41443562
C        4.68062563       2.13599227      -3.82689266
O        4.36993402       2.14359003      -5.22343029
C        5.45904876       1.98557573      -6.04027497
C        6.48779496       1.07196368      -5.80590321
C        7.54683219       0.96259091      -6.71080868
C        7.57585869       1.75799544      -7.85499321
C        6.53735891       2.65375987      -8.10364086
C        5.47543285       2.75779914      -7.20354522
C        2.81443167       4.90705783      -3.34093715
C        3.37180099       5.25716736      -4.59736923
C        3.32022438       6.62838391      -4.67778628
O        2.76546240       7.14832105      -3.55397983
C        2.46875326       6.09995007      -2.72611985
C        1.83919036       6.45417925      -1.42491733
O        2.67391949       7.41418367      -0.77662117
C        2.17874874       7.92736851       0.39341642
C        2.70849643       9.16381998       0.76879132
C        2.28682446       9.78830571       1.94304179
C        1.34146350       9.17238488       2.75864296
C        0.82008043       7.92863584       2.40004548
C        1.23892353       7.30640101       1.21975077
Br       3.90503515       7.64084931      -6.13084161
H        0.73300449       3.69105208      -1.66206013
H        5.05350704       1.15311269      -3.51840609
H        5.43093637       2.90056299      -3.59401118
H        6.47724716       0.41109352      -4.94561652
H        8.34384054       0.24648042      -6.52796857
H        8.39993477       1.66990471      -8.55844781
H        6.55162155       3.26649720      -9.00183115
H        4.66340588       3.44861315      -7.41211134
H        3.74201406       4.60009592      -5.36812232
H        1.76173783       5.56178301      -0.80034259
H        0.84300783       6.87468968      -1.60995275
H        3.44798272       9.64806693       0.13556983
H        2.69536140      10.75639221       2.22039514
H        1.01105786       9.65473445       3.67459141
H        0.09174727       7.44025826       3.04192483
H        0.82218503       6.33195607       0.98969048
C       -1.77696357      -1.77696357      -1.77696357
C       -1.57641165      -3.11538882      -2.01616111
C       -2.64628415      -3.54137577      -2.84944659
C       -3.41136729      -2.41445108      -3.10045328
O       -2.88239519      -1.34302628      -2.43165385
C       -4.66154450      -2.12672884      -3.85523723
O       -4.33547923      -2.15344501      -5.24803012
C       -5.41362045      -1.99253069      -6.07874832
C       -6.43458710      -1.06498620      -5.86608855
C       -7.48222319      -0.95402932      -6.78397927
C       -7.50747467      -1.76185239      -7.91952028
C       -6.47639696      -2.67181993      -8.14654276
C       -5.42575917      -2.77752999      -7.23348804
C       -2.83207181      -4.91270550      -3.31764934
C       -3.37935769      -5.27068553      -4.57629435
C       -3.34228251      -6.64320608      -4.64090599
O       -2.80589529      -7.15662371      -3.50524428
C       -2.50664548      -6.10238591      -2.68579177
C       -1.89557572      -6.44895562      -1.37375560
O       -2.74816804      -7.39230235      -0.72425394
C       -2.27180189      -7.89778843       0.45688949
C       -2.81952431      -9.12399486       0.83999408
C       -2.41794353      -9.73990507       2.02576022
C       -1.47483948      -9.12539934       2.84503340
C       -0.93558493      -7.89161516       2.47852930
C       -1.33429538      -7.27805479       1.28677640
Br      -3.92225725      -7.66536141      -6.08910743
H       -0.75588897      -3.70110927      -1.62911846
H       -5.02677319      -1.13637200      -3.56188063
H       -5.42292591      -2.88026467      -3.62231995
H       -6.42617126      -0.39466150      -5.01312443
H       -8.27312529      -0.22711170      -6.61805253
H       -8.32265322      -1.67252169      -8.63311238
H       -6.48756642      -3.29440191      -9.03798158
H       -4.61927096      -3.47960965      -7.42524977
H       -3.73359801      -4.61823677      -5.35839752
H       -1.81504963      -5.55052122      -0.75829257
H       -0.90218274      -6.88254491      -1.54292262
H       -3.55732562      -9.60708112       0.20392692
H       -2.84037101     -10.70022501       2.30923756
H       -1.16005222      -9.60107689       3.76992821
H       -0.20898509      -7.40417786       3.12308225
H       -0.90412082      -6.31093750       1.05060770
C       -1.77696357       1.77696357       1.77696357
C       -2.85130570       1.34147816       2.51517773
C       -3.35070667       2.47666121       3.20973863
C       -2.56715551       3.54721613       2.81190001
O       -1.59950835       3.11056664       1.94700032
C       -2.50389624       4.99707996       3.14253437
O       -3.61049333       5.63169778       2.49476323
C       -3.73734776       6.96584369       2.78170801
C       -2.66710751       7.85986542       2.83868892
C       -2.89684783       9.21059237       3.11279159
C       -4.19532080       9.67233555       3.32119099
C       -5.26801810       8.78602541       3.24071614
C       -5.03939244       7.43795605       2.95942871
C       -4.47889028       2.44614134       4.13739502
C       -5.40885082       3.50227222       4.31521453
C       -6.32727695       3.06122580       5.23789182
O       -6.02675530       1.80074236       5.64026561
C       -4.88747702       1.42583887       4.98150728
C       -4.38281089       0.05749314       5.27798291
O       -4.23361967      -0.06185758       6.69296224
C       -3.87615289      -1.30592340       7.14247134
C       -4.19323794      -1.56697305       8.47726021
C       -3.87693498      -2.79786883       9.05302222
C       -3.22714257      -3.77236460       8.30042745
C       -2.89079624      -3.51324096       6.97111552
C       -3.21374451      -2.28139418       6.39322344
Br      -7.79643660       4.03886429       5.84142519
H       -3.21803264       0.32613460       2.54194946
H       -1.55498221       5.39917699       2.77086662
H       -2.55956893       5.13762873       4.22831287
H       -1.64842351       7.54154236       2.64399132
H       -2.06168026       9.90519321       3.15141605
H       -4.37176342      10.72395123       3.53257264
H       -6.28297048       9.14625520       3.39072423
H       -5.88236680       6.75681051       2.88495307
H       -5.43344735       4.45882521       3.81795974
H       -3.41241980      -0.08704703       4.79849066
H       -5.10353245      -0.68046139       4.90457920
H       -4.69962716      -0.80844098       9.06929364
H       -4.13909959      -2.99653392      10.08879279
H       -2.97797667      -4.73198669       8.74521093
H       -2.37198116      -4.26775508       6.38585462
H       -2.91654501      -2.11559683       5.36350243
C        1.77696357      -1.77696357       1.77696357
C        2.87169419      -1.34781557       2.48845183
C        3.36346247      -2.47939379       3.19425026
C        2.55439284      -3.54263870       2.82924011
O        1.57930031      -3.10403044       1.97374457
C        2.47171404      -4.98515552       3.18664100
O        3.55537610      -5.65055114       2.53102711
C        3.66399606      -6.98152716       2.83937624
C        2.57949091      -7.85525794       2.93091300
C        2.79044712      -9.20486240       3.22492226
C        4.08415838      -9.68589799       3.41879098
C        5.17056767      -8.82033027       3.30386171
C        4.96055171      -7.47352782       3.00269768
C        4.50831362      -2.45273476       4.10137827
C        5.42270538      -3.52195888       4.28167332
C        6.36494347      -3.08126017       5.18019093
O        6.09367351      -1.80880210       5.56528767
C        4.94958825      -1.42527148       4.91996344
C        4.47423859      -0.04320586       5.20084250
O        4.35232227       0.10346457       6.61586664
C        4.02467580       1.36134504       7.04937007
C        4.36994009       1.63998439       8.37356939
C        4.08545829       2.88617178       8.93280187
C        3.43950836       3.85877184       8.17446889
C        3.07511973       3.58249582       6.85604689
C        3.36619033       2.33520244       6.29458588
Br       7.82730258      -4.07416506       5.77525844
H        3.25651098      -0.33883658       2.49076914
H        1.50946922      -5.37675451       2.83880208
H        2.54421018      -5.10769228       4.27360807
H        1.56322115      -7.52233069       2.74840535
H        1.94409739      -9.88373203       3.29046011
H        4.24594133     -10.73663200       3.64571395
H        6.18158112      -9.19586522       3.44250358
H        5.81383378      -6.80887402       2.90142257
H        5.42175643      -4.48733415       3.80114172
H        3.49815158       0.11016174       4.73587358
H        5.20098563       0.67519249       4.80185713
H        4.87344882       0.88302593       8.97005693
H        4.36941627       3.09820102       9.96014321
H        3.21507880       4.83028981       8.60641191
H        2.55923919       4.33577664       6.26661814
H        3.04788971       2.15675894       5.27331985
C       -0.00445707       0.01189536      -1.78238275
H       -0.66409135       0.67374010      -2.43557963
H        0.65740317      -0.63156657      -2.45157240
C       -0.90989263      -0.90692880      -0.91072765
C        0.90977584       0.90977584      -0.90977584
C       -0.00465871       1.77757030       0.00794375
H       -0.66225468       2.44313916      -0.64384735
H        0.64322798       2.43503045       0.67728295
C       -1.78241447       0.00034974      -0.00472694
H       -2.45427497      -0.65498947       0.64260836
H       -2.43311707       0.67328779      -0.65473579
C       -0.91132561       0.90220522       0.91563759
C       -0.01476271      -0.02253852       1.78660255
H       -0.67934791      -0.69751639       2.42135241
H        0.63392994       0.61504881       2.47327442
C        0.01484550      -1.77751727      -0.01636693
H        0.67870853      -2.42144646      -0.68295456
H       -0.62264859      -2.45592969       0.64226336
C        1.78714474       0.01002794       0.00389507
H        2.44202412       0.67113390       0.66197326
H        2.45385902      -0.65136977      -0.64189061
C        0.91606151      -0.90478549       0.90901405
