189
Properties=species:S:1:pos:R:3 pbc="F F F"
C        0.00000000       0.00000000       0.00000000
C        0.86691535       0.86691535      -0.86691535
C        0.76081948       2.23317849      -0.98964117
C        1.76788339       2.62443950      -1.90689824
C        2.44025729       1.47766270      -2.27625331
O        1.87561139       0.39931840      -1.64668190
C        3.59033310       1.15540206      -3.16597458
O        4.55392374       2.19573391      -3.02268942
C        5.84846167       1.92938351      -3.37228808
C        6.37179342       0.69161827      -3.74762849
C        7.73978322       0.55548925      -4.00903526
C        8.58691473       1.65742390      -3.91656156
C        8.06701221       2.90107844      -3.56916454
C        6.70386222       3.03315192      -3.29667684
C        2.03655526       3.94925492      -2.35244649
C        2.24874719       5.07301886      -2.72106569
C        2.51629844       6.50436020      -3.19567859
C        2.74528141       7.61494812      -3.58410827
C        3.05294961       8.91978496      -4.06537363
C        2.39526332      10.13439232      -3.75877736
C        3.07038869      11.11548112      -4.45045581
O        4.10069838      10.57891060      -5.15652705
C        4.08832220       9.23252280      -4.92323674
C        5.15923183       8.43456850      -5.57122768
O        4.66080226       8.00856748      -6.83789328
C        5.52580954       7.29016632      -7.61994149
C        5.04522986       6.97666878      -8.89431070
C        5.83000271       6.24923978      -9.79193773
C        7.10318962       5.82664594      -9.41761870
C        7.58786196       6.13064824      -8.14733296
C        6.80219517       6.85997048      -7.24961088
Br       2.65543895      12.93387113      -4.41806267
H        0.04844539       2.86722238      -0.48321931
H        3.25911415       1.10377216      -4.20879786
H        3.98461755       0.18381211      -2.85337548
H        5.75917596      -0.19858705      -3.83343029
H        8.14444908      -0.41755789      -4.27713495
H        9.65003237       1.54516756      -4.11266311
H        8.72126587       3.76556027      -3.49941916
H        6.30427096       4.00408402      -3.01454309
H        1.54250480      10.27914010      -3.11120358
H        5.39737501       7.56674563      -4.94490928
H        6.05273462       9.05758131      -5.69786823
H        4.05243496       7.30496602      -9.19219659
H        5.44682993       6.01417153     -10.78126810
H        7.71674029       5.26044527     -10.11343714
H        8.58017087       5.79903927      -7.85228579
H        7.22033144       7.06985075      -6.27126335
C       -0.86691535      -0.86691535      -0.86691535
C       -2.15814498      -0.57994241      -1.24555175
C       -2.58296883      -1.66791349      -2.04833882
C       -1.52139002      -2.54566712      -2.12711616
O       -0.47473865      -2.05742071      -1.38945233
C       -1.26249811      -3.84850067      -2.80071097
O       -1.88513318      -3.80518439      -4.08202950
C       -1.43856231      -4.66527978      -5.04629117
C       -0.33703620      -5.51703190      -4.95697206
C        0.04525287      -6.29162411      -6.05793650
C       -0.68154053      -6.23443379      -7.24492587
C       -1.79775566      -5.40732366      -7.33217588
C       -2.17106557      -4.62570229      -6.23692313
C       -3.85867330      -1.81819768      -2.66138569
C       -4.94144058      -1.93156236      -3.16982879
C       -6.32316172      -2.07949832      -3.81367719
C       -7.39711934      -2.22017967      -4.32703879
C       -8.65802766      -2.42195303      -4.95812751
C       -9.79945320      -1.58785342      -4.90112638
C      -10.75348545      -2.19775579      -5.68508439
O      -10.26690869      -3.34858131      -6.22064603
C       -8.98347661      -3.48796724      -5.77263789
C       -8.23176657      -4.67035408      -6.26290736
O       -8.45072699      -5.72667943      -5.32985661
C       -7.87334843      -6.93163819      -5.63093074
C       -8.19079551      -7.97202428      -4.75338955
C       -7.66908846      -9.25271395      -4.94937781
C       -6.82105953      -9.50033983      -6.02605490
C       -6.49558728      -8.46759018      -6.90266571
C       -7.01918079      -7.18599025      -6.70660549
Br     -12.47117963      -1.54006700      -5.99612612
H       -2.72235419       0.30077633      -0.97730923
H       -1.68873531      -4.66923621      -2.21371264
H       -0.17758463      -3.96960548      -2.87461502
H        0.26475905      -5.59966061      -4.05911763
H        0.91940946      -6.93467720      -5.98875840
H       -0.37607821      -6.83180583      -8.09997898
H       -2.37167130      -5.36113355      -8.25344045
H       -3.03681947      -3.97256669      -6.31351191
H       -9.91191842      -0.65727402      -4.36365603
H       -7.16415592      -4.42688543      -6.31798858
H       -8.60048942      -4.95086120      -7.25683353
H       -8.85318827      -7.78460569      -3.91180360
H       -7.92557627     -10.05449449      -4.26219880
H       -6.41321758     -10.49563272      -6.18177239
H       -5.83141885      -8.65822562      -7.74185146
H       -6.73515865      -6.41351703      -7.41276986
C       -0.86691535       0.86691535       0.86691535
C       -1.07234299       0.69486559       2.21643056
C       -1.95499270       1.72984818       2.61438025
C       -2.22222862       2.48256046       1.48938422
O       -1.56375757       1.94177003       0.41608409
C       -3.02934538       3.69680284       1.18556153
O       -2.89377771       4.59358371       2.28498565
C       -3.15784071       5.91825755       2.07403500
C       -3.43387821       6.52759732       0.84956464
C       -3.61345716       7.91352436       0.77732622
C       -3.53827752       8.69377708       1.92884559
C       -3.29024810       8.08912323       3.15788386
C       -3.09913286       6.70761099       3.22694714
C       -2.45982532       1.95193201       3.92649934
C       -2.87960222       2.12412629       5.03910322
C       -3.41950497       2.34102969       6.45580258
C       -3.85738574       2.53179220       7.55515986
C       -4.39460494       2.79584754       8.84765572
C       -4.19299161       2.05769743      10.03774397
C       -4.90195029       2.71736148      11.01701385
O       -5.52025633       3.81328650      10.50259321
C       -5.21207650       3.85989702       9.17210822
C       -5.75549752       5.00701806       8.40251243
O       -7.02089061       4.60468653       7.88168588
C       -7.71350266       5.54986177       7.17255292
C       -8.99199171       5.15973220       6.76448543
C       -9.80361964       6.03194792       6.03561265
C       -9.33826371       7.30270527       5.70648528
C       -8.06308850       7.69765525       6.10509941
C       -7.25152097       6.82444145       6.83581410
Br      -4.99489495       2.20437905      12.80809875
H       -0.64155894      -0.07800764       2.83533578
H       -4.08382114       3.42842825       1.05943478
H       -2.64153183       4.12425505       0.25601825
H       -3.50182982       5.96941839      -0.07722901
H       -3.80393510       8.38429692      -0.18420587
H       -3.67044275       9.77078175       1.86663853
H       -3.23461536       8.69109977       4.06053017
H       -2.89427179       6.24121600       4.18741028
H       -3.60129461       1.16309714      10.16845672
H       -5.06916649       5.25547286       7.58439058
H       -5.86915199       5.87158121       9.06745096
H       -9.36077766       4.16923770       7.01958220
H      -10.79715953       5.71857959       5.72653044
H       -9.96700714       7.98414773       5.13946782
H       -7.69697109       8.68800353       5.84652131
H       -6.26562980       7.17463892       7.12117682
C        0.86691535      -0.86691535       0.86691535
C        1.69972977      -1.86587451       0.41803486
C        2.31213939      -2.41482243       1.57225931
C        1.83121349      -1.70786623       2.65509359
O        0.93402485      -0.76795096       2.21963588
C        2.05288881      -1.73116238       4.12765855
O        3.43775809      -1.98103341       4.35355557
C        3.97067903      -1.61985681       5.55959742
C        3.32914022      -0.90808760       6.57381234
C        4.02844628      -0.54544861       7.73041285
C        5.36394632      -0.90874240       7.88821147
C        6.00245196      -1.64242400       6.89237924
C        5.30715163      -1.99320366       5.73333571
C        3.25006492      -3.48494831       1.60324344
C        4.03864659      -4.39148036       1.61270479
C        5.03961863      -5.55055453       1.62616407
C        5.82332678      -6.45667873       1.66433229
C        6.76068193      -7.52559628       1.75182999
C        7.27693459      -8.31457267       0.69692574
C        8.15748611      -9.19796405       1.28087546
O        8.21547644      -8.99662311       2.62403649
C        7.35693675      -7.97365493       2.91349006
C        7.28017676      -7.55058894       4.33426232
O        6.24425029      -8.31563823       4.94737451
C        6.04524478      -8.10470183       6.28597074
C        5.09580030      -8.94150531       6.87890373
C        4.80048373      -8.83114429       8.23955219
C        5.45287384      -7.87746974       9.01711068
C        6.39704637      -7.03601026       8.43278654
C        6.69312463      -7.14782135       7.07083055
Br       9.15491289     -10.48366424       0.36879561
H        1.84705166      -2.16175963      -0.60992420
H        1.45713587      -2.52711063       4.58743767
H        1.74077553      -0.75932113       4.52170847
H        2.29271372      -0.59837173       6.50293375
H        3.52874905       0.03044405       8.50572114
H        5.90529233      -0.61790318       8.78466752
H        7.04258909      -1.93280244       7.01085378
H        5.81332627      -2.55637141       4.95320039
H        7.04358334      -8.24505763      -0.35579250
H        7.04354887      -6.48119280       4.38428826
H        8.24241485      -7.74137637       4.82439294
H        4.58423983      -9.68850083       6.27685690
H        4.06264208      -9.48948170       8.69014578
H        5.22570995      -7.78869553      10.07621721
H        6.90506626      -6.28900279       9.03742687
H        7.43244144      -6.46921395       6.65979015
