130
Properties=species:S:1:pos:R:3 pbc="F F F"
N        2.47711410       2.84103811      -1.03165613
C        1.80248762       1.80248762      -1.80248762
C        2.83798057       1.11108656      -2.70764035
C        2.33865539       1.94087220      -3.91081127
H        2.02218332       1.32920774      -4.76301727
C        1.16387993       2.44780160      -3.04596083
C        3.32204122       3.08511497      -4.25973400
H        3.64260503       3.70510595      -3.41517970
C        2.81555337       3.91077014      -5.46104493
C        3.95701780       3.35338964      -6.32901472
C        4.49794452       2.57245845      -5.11694333
N        3.39348336       2.41153036      -7.29162029
H        1.81641494       3.45574744      -0.55655564
H        3.05205353       2.45105626      -0.28514188
H        2.66689423       0.03614686      -2.85011422
H        3.89348585       1.23331020      -2.43797262
H        1.01288629       3.53323539      -3.01958337
H        0.20814275       1.99924452      -3.34658840
H        2.86617432       4.99108271      -5.27518990
H        1.79369372       3.69356240      -5.79538696
H        4.57400130       1.48405174      -5.22713093
H        5.46874162       2.92158080      -4.74283473
H        2.90893768       1.61289609      -6.88503165
H        4.09683510       2.03201906      -7.92357498
C        4.84269962       4.29928408      -6.95706840
C        5.58445814       5.09147068      -7.48306336
Br       6.78381893       6.37236940      -8.33355271
N       -1.53290652      -1.59579102      -3.22111080
C       -1.80248762      -1.80248762      -1.80248762
C       -1.82020288      -3.31573111      -1.52077349
C       -3.36458610      -3.29784934      -1.52790343
H       -3.81101705      -3.69424432      -0.60914695
C       -3.32491067      -1.75481166      -1.57792003
C       -3.93411788      -3.89403709      -2.83873522
H       -3.49682355      -3.50227964      -3.76378750
C       -5.47711689      -3.87084287      -2.83940868
C       -5.50305549      -5.40530491      -2.73106175
C       -3.96438986      -5.43572577      -2.78723067
N       -5.93956569      -5.77041468      -1.38665365
H       -1.69416992      -0.62959327      -3.50495484
H       -0.55690714      -1.77591484      -3.45542969
H       -1.41674488      -3.59703987      -0.53937056
H       -1.33861233      -3.96443070      -2.26172564
H       -3.92724731      -1.27834260      -2.36011514
H       -3.62630912      -1.30433949      -0.62332706
H       -5.88744222      -3.47007558      -3.77492914
H       -5.94858907      -3.31296522      -2.02108878
H       -3.45013691      -5.89860522      -1.93644185
H       -3.54771811      -5.89058699      -3.69485206
H       -5.34988057      -5.42664361      -0.63034124
H       -6.01284082      -6.77882069      -1.26076762
C       -6.21798368      -6.13537862      -3.74568980
C       -6.81673604      -6.74681534      -4.59544079
Br      -7.78486796      -7.73545681      -5.96941627
N       -2.88404140       1.04424672       2.42152022
C       -1.80248762       1.80248762       1.80248762
C       -1.11659680       2.65437962       2.88573105
C       -1.89410139       3.89705649       2.39918100
H       -1.24766889       4.73905329       2.12768614
C       -2.39017776       3.08390328       1.18356133
C       -3.05721879       4.25154023       3.35813117
H       -3.71186714       3.41732271       3.63370084
C       -3.83043110       5.49244590       2.86449144
C       -3.28282719       6.30815483       4.04844015
C       -2.55568459       5.05684855       4.57481315
N       -2.29555879       7.25764980       3.54342543
H       -3.49200247       0.60839941       1.72831615
H       -2.53457749       0.26913084       2.98454335
H       -0.03309377       2.76862273       2.75143880
H       -1.27942054       2.35709175       3.92825638
H       -3.47072796       3.09563058       0.99934651
H       -1.90347904       3.39904320       0.25145343
H       -4.91687894       5.33864003       2.87692797
H       -3.57181222       5.85040310       1.86042776
H       -1.46733481       5.13100866       4.68684051
H       -2.94570963       4.66477049       5.52267704
H       -1.49487843       6.84127975       3.07070725
H       -1.91919288       7.85619732       4.27703894
C       -4.23639055       6.93830881       4.92435275
C       -5.03499986       7.46606276       5.65792955
Br      -6.32628357       8.31939628       6.84406120
N        1.46179100      -3.21495500       1.67306234
C        1.80248762      -1.80248762       1.80248762
C        3.32917943      -1.65139142       1.67613662
C        3.44362323      -1.53474493       3.21197070
H        3.94837340      -0.62103660       3.54499832
C        1.90378513      -1.45490654       3.29895070
C        3.98097737      -2.84279141       3.84312142
H        3.48112030      -3.76242822       3.51934217
C        4.09053693      -2.71938547       5.37744604
C        5.62529226      -2.74164264       5.27248726
C        5.51878505      -2.92178006       3.74678119
N        6.13179583      -1.40329320       5.56154499
H        0.49361631      -3.40103418       1.93406754
H        1.53823760      -3.54037426       0.70963982
H        3.65152504      -0.73281449       1.16881578
H        3.87341153      -2.48113940       1.21021773
H        1.42047413      -2.14312732       4.00210360
H        1.55783524      -0.44427870       3.55186174
H        3.65377148      -3.58158123       5.89709421
H        3.64175619      -1.82140792       5.81947896
H        6.00159895      -2.15729796       3.12628707
H        5.86290049      -3.89525566       3.37500101
H        5.79952400      -0.66926265       4.93807878
H        7.14955496      -1.35916229       5.54371188
C        6.33155022      -3.75552019       6.01198169
C        6.92304127      -4.60464264       6.63130826
Br       7.87943227      -5.97760182       7.63270696
C       -0.00445707       0.01189536      -1.78238275
H       -0.66409135       0.67374010      -2.43557963
H        0.65740317      -0.63156657      -2.45157240
C       -0.90989263      -0.90692880      -0.91072765
C        0.90977584       0.90977584      -0.90977584
C       -0.00465871       1.77757030       0.00794375
H       -0.66225468       2.44313916      -0.64384735
H        0.64322798       2.43503045       0.67728295
C       -1.78241447       0.00034974      -0.00472694
H       -2.45427497      -0.65498947       0.64260836
H       -2.43311707       0.67328779      -0.65473579
C       -0.91132561       0.90220522       0.91563759
C       -0.01476271      -0.02253852       1.78660255
H       -0.67934791      -0.69751639       2.42135241
H        0.63392994       0.61504881       2.47327442
C        0.01484550      -1.77751727      -0.01636693
H        0.67870853      -2.42144646      -0.68295456
H       -0.62264859      -2.45592969       0.64226336
C        1.78714474       0.01002794       0.00389507
H        2.44202412       0.67113390       0.66197326
H        2.45385902      -0.65136977      -0.64189061
C        0.91606151      -0.90478549       0.90901405
