122
Properties=species:S:1:pos:R:3 pbc="F F F"
C        1.82314391       1.82314391      -1.82314391
H        2.57924769       1.20439172      -2.31887316
C        2.41691151       3.07758268      -1.13323960
C        1.37100693       3.93446120      -1.85482733
C        1.06906490       2.76103438      -2.79844637
N        0.21829364       4.17263384      -0.97624510
C        1.81989347       5.23190750      -2.52773038
N        0.71511751       5.84788372      -3.26838515
C        3.08466014       5.20350926      -3.39227602
C        3.83340887       5.96215591      -2.26856162
H        4.44800244       5.29550889      -1.65198922
C        2.47056735       6.27367447      -1.60668051
Br       4.85780518       7.50107141      -2.84057087
H        3.45766780       3.23956861      -1.43227464
H        2.39437178       3.09181810      -0.03794180
H        0.01390457       2.53012308      -2.98156053
H        1.55887565       2.81767582      -3.77830394
H       -0.06647403       3.36039143      -0.42472348
H       -0.61771989       4.43612045      -1.49958192
H        0.97301298       6.68193891      -3.79719709
H       -0.03683425       6.15309417      -2.64898010
H        3.01746686       5.74945757      -4.34192398
H        3.50523376       4.21832659      -3.61912518
H        2.44018723       6.05649865      -0.53338778
H        2.12317738       7.30567863      -1.74154839
C       -1.82314391      -1.82314391      -1.82314391
H       -1.49128151      -2.86445554      -1.74677552
C       -1.99776804      -1.34342747      -3.28653829
C       -3.39844151      -0.83812975      -2.92372420
C       -3.35003229      -1.65460971      -1.62390366
N       -3.35354755       0.59599061      -2.60961564
C       -4.56115275      -1.15307114      -3.86530746
N       -5.83406958      -0.70138436      -3.29593243
C       -4.69874885      -2.58285899      -4.39883758
C       -4.20210166      -2.08367326      -5.77835148
H       -3.14186050      -2.30698019      -5.94665987
C       -4.42089474      -0.62864988      -5.30137772
Br      -5.26602417      -2.63586130      -7.29756199
H       -1.95846831      -2.18407818      -3.98696456
H       -1.28240037      -0.59556208      -3.64616923
H       -3.67069515      -1.14778983      -0.70710319
H       -3.87957075      -2.61454502      -1.66073964
H       -2.53980662       0.88224802      -2.06108228
H       -4.15727226       0.89493329      -2.05564352
H       -6.65608262      -0.94730828      -3.84875808
H       -5.87344260       0.31484630      -3.20664372
H       -5.71899891      -2.98718677      -4.40266274
H       -4.05538060      -3.34324306      -3.94406188
H       -3.56903349       0.03269473      -5.49373490
H       -5.31284416      -0.14202626      -5.71553398
C       -1.82314391       1.82314391       1.82314391
H       -1.55550953       2.87475961       1.67224343
C       -1.89140591       1.41858741       3.31774047
C       -3.27859804       0.81901164       3.06268578
C       -3.34649656       1.56180849       1.72024060
N       -3.16930173      -0.62614257       2.82401342
C       -4.40506083       1.12399302       4.05047750
N       -5.67902435       0.57300009       3.57936194
C       -4.59474510       2.57230487       4.51339546
C       -3.99718851       2.17962982       5.88730807
H       -2.94382654       2.46875178       5.98292224
C       -4.15833345       0.69022908       5.50235980
Br      -5.00760898       2.75922790       7.43261058
H       -1.86232842       2.29853866       3.96864395
H       -1.11645719       0.73184521       3.67582928
H       -3.68664816       0.98727286       0.85166715
H       -3.92692927       2.49245863       1.73546751
H       -2.37126031      -0.89895823       2.24633880
H       -3.98335147      -0.99878467       2.33341568
H       -6.48279245       0.80540499       4.16395153
H       -5.66538474      -0.44730602       3.54716130
H       -5.63462184       2.92081746       4.55340912
H       -4.02093384       3.33910174       3.98264996
H       -3.26120402       0.08757837       5.68129127
H       -4.99768766       0.18069879       5.99201796
C        1.82314391      -1.82314391       1.82314391
H        2.37597244      -1.19564176       2.53089837
C        2.72465232      -2.83371295       1.06936852
C        1.75026557      -3.95048436       1.45954554
C        1.10914306      -3.01990496       2.49949763
N        0.80159906      -4.19939678       0.36617674
C        2.31517296      -5.26448002       1.99987837
N        1.23823988      -6.15898528       2.43416122
C        3.41190132      -5.20050186       3.06804225
C        4.44158835      -5.62915905       1.99337901
H        5.01414219      -4.78028910       1.60106927
C        3.26906784      -6.01892852       1.06292598
Br       5.62404004      -7.07452972       2.50087771
H        3.72126082      -2.88880200       1.51944822
H        2.86854294      -2.65805386      -0.00246512
H        0.01449081      -2.98479991       2.52629745
H        1.44960805      -3.17452759       3.53071977
H        0.46372287      -3.35441513      -0.09949711
H       -0.04349050      -4.67258247       0.68889052
H        1.55719616      -7.02519897       2.86975385
H        0.65268050      -6.45900918       1.65355034
H        3.30105918      -5.90896077       3.89882847
H        3.61382051      -4.21913949       3.50972553
H        3.36129929      -5.62314657       0.04562780
H        3.09266812      -7.09863164       0.97910464
C       -0.00445707       0.01189536      -1.78238275
H       -0.66409135       0.67374010      -2.43557963
H        0.65740317      -0.63156657      -2.45157240
C       -0.90989263      -0.90692880      -0.91072765
C        0.90977584       0.90977584      -0.90977584
C       -0.00465871       1.77757030       0.00794375
H       -0.66225468       2.44313916      -0.64384735
H        0.64322798       2.43503045       0.67728295
C       -1.78241447       0.00034974      -0.00472694
H       -2.45427497      -0.65498947       0.64260836
H       -2.43311707       0.67328779      -0.65473579
C       -0.91132561       0.90220522       0.91563759
C       -0.01476271      -0.02253852       1.78660255
H       -0.67934791      -0.69751639       2.42135241
H        0.63392994       0.61504881       2.47327442
C        0.01484550      -1.77751727      -0.01636693
H        0.67870853      -2.42144646      -0.68295456
H       -0.62264859      -2.45592969       0.64226336
C        1.78714474       0.01002794       0.00389507
H        2.44202412       0.67113390       0.66197326
H        2.45385902      -0.65136977      -0.64189061
C        0.91606151      -0.90478549       0.90901405
