146
Properties=species:S:1:pos:R:3 pbc="F F F"
C        1.82381106       1.82381106      -1.82381106
H        2.75375843       1.29253372      -2.05410726
C        2.05270050       3.26695090      -1.31493997
C        1.02478799       3.77126689      -2.34548726
C        1.13136911       2.41834917      -3.07376746
N       -0.28352220       3.87935279      -1.70239375
C        1.32882982       4.96636985      -3.08096642
C        1.53744445       5.98597326      -3.67989091
C        1.74368838       7.31206900      -4.41740312
C        1.86022943       8.37192689      -4.96997648
C        1.97157835       9.65570299      -5.60897598
N        0.78485566      10.46924750      -5.37692139
C        2.33197157       9.69479152      -7.10924052
C        3.80010044       9.94741080      -6.67864948
H        4.36301029       9.01428841      -6.54722458
C        3.24004088      10.49273310      -5.33857502
H        3.07927196       3.61175484      -1.49893026
H        1.83292483       3.45596500      -0.25827925
H        0.19340365       1.94692290      -3.38738350
H        1.79629494       2.42982223      -3.94791608
H       -0.59144143       3.04417342      -1.20417782
H       -1.03600163       4.11836779      -2.34717267
H        0.83178297      11.42107517      -5.73581641
H        0.53168509      10.54846394      -4.39255361
H        1.88137748      10.51586634      -7.68253326
H        2.17245509       8.76779050      -7.67034550
H        3.82301079      10.21647425      -4.45338657
H        3.09460503      11.58084000      -5.31793646
C        4.53623309      10.89138991      -7.47903199
C        5.15274418      11.68197242      -8.14935234
Br       6.14959046      12.96027747      -9.23320366
C       -1.82381106      -1.82381106      -1.82381106
H       -2.82209296      -1.37902799      -1.89927846
C       -1.84902053      -3.32710164      -1.45846919
C       -0.89697780      -3.60812874      -2.63643560
C       -1.21886014      -2.20944052      -3.19518508
N        0.47901479      -3.63367200      -2.14356713
C       -1.15988200      -4.75000802      -3.46627608
C       -1.33079314      -5.72140650      -4.15110898
C       -1.48411799      -6.98170822      -5.00733428
C       -1.55480315      -7.98729353      -5.66003611
C       -1.60756822      -9.20504507      -6.42364403
N       -0.32695925      -9.90049631      -6.40356899
C       -2.12704949      -9.13367304      -7.87528107
C       -3.50539816      -9.59002387      -7.33073869
H       -4.14071821      -8.74325600      -7.04054907
C       -2.74784932     -10.20095303      -6.12254666
H       -2.84999973      -3.76391882      -1.57603851
H       -1.49514014      -3.59526626      -0.45676267
H       -0.37357211      -1.60749287      -3.54664507
H       -1.97248386      -2.20733949      -3.99420991
H        0.75535455      -2.82348139      -1.58878297
H        1.17513422      -3.72166853      -2.88300453
H       -0.31806028     -10.81090124      -6.85971304
H        0.04090048     -10.04914687      -5.46445624
H       -1.66319765      -9.83793961      -8.57863982
H       -2.12459058      -8.14320072      -8.34279979
H       -3.25332653     -10.08131768      -5.15822740
H       -2.49285309     -11.26266543      -6.23786298
C       -4.22788337     -10.52522981      -8.15354180
C       -4.83296474     -11.30846478      -8.84263941
Br      -5.81133014     -12.57488950      -9.95685195
C       -1.82381106       1.82381106       1.82381106
H       -1.27272015       2.73016655       2.09751271
C       -2.48255231       1.11872268       3.03331637
C       -3.81194028       1.07321751       2.25638435
C       -3.24092518       2.11080451       1.27175604
N       -3.93135776      -0.22160025       1.58846683
C       -5.02203186       1.39510618       2.95902806
C       -6.05384560       1.61825955       3.53120347
C       -7.39213325       1.83902031       4.24200693
C       -8.45528786       1.95948675       4.78735819
C       -9.73448947       2.06538885       5.43637901
N      -10.57328516       0.90873255       5.14900685
C      -10.55463872       3.35578552       5.22557936
C       -9.99139280       3.85246950       6.58229841
H       -9.05133059       4.40711616       6.46607653
C       -9.75683431       2.36381143       6.95070326
H       -2.50476026       1.76118140       3.92401540
H       -2.05020471       0.15909607       3.33786829
H       -3.40004562       1.92362653       0.20403790
H       -3.56050781       3.14259422       1.47093122
H       -3.12676736      -0.49309742       1.02323987
H       -4.74388045      -0.29120815       0.97686653
H      -11.46373595       0.88257886       5.64235975
H      -10.11647654       0.01732077       5.33890534
H      -11.64490246       3.22571275       5.20916188
H      -10.27781986       3.97043630       4.36233494
H       -8.82736972       2.16901391       7.49648798
H      -10.57885681       1.90155079       7.51297389
C      -10.91677809       4.56646261       7.42341428
C      -11.69178827       5.16443184       8.12784882
Br     -12.94491418       6.13129751       9.26685989
C        1.82381106      -1.82381106       1.82381106
H        1.29452682      -2.75590951       2.04996308
C        2.41979076      -1.13839173       3.07640888
C        3.77114436      -1.02465575       2.34574203
C        3.26659702      -2.04685182       1.31003690
N        3.86898526       0.29471149       1.72395057
C        4.96810013      -1.33069725       3.07736872
C        5.98787868      -1.53950089       3.67592905
C        7.30928734      -1.74068623       4.42318693
C        8.35783509      -1.84502067       4.99927704
C        9.61839878      -1.93131729       5.68654126
N       10.42723904      -0.73951747       5.46426805
C       10.48712270      -3.18710546       5.46177544
C        9.89745838      -3.74618864       6.78251369
H        8.98046620      -4.32650723       6.61754986
C        9.60209716      -2.27881027       7.19044157
H        2.43470670      -1.80892721       3.94632314
H        1.94639851      -0.20370526       3.39706530
H        3.45354948      -1.81945029       0.25471027
H        3.61359961      -3.07390232       1.48653133
H        3.07436702       0.55885460       1.14139739
H        4.69792961       0.41050187       1.14211110
H       11.30008037      -0.70119774       5.98739645
H        9.93534044       0.13003655       5.66739876
H       11.57245221      -3.02171174       5.48561313
H       10.25857906      -3.78140834       4.57060369
H        8.64969466      -2.13204321       7.71113375
H       10.38994677      -1.80931778       7.79411694
C       10.81854834      -4.45761786       7.63048879
C       11.58996118      -5.05343983       8.34066793
Br      12.83727049      -6.01683356       9.48896754
C       -0.00445707       0.01189536      -1.78238275
H       -0.66409135       0.67374010      -2.43557963
H        0.65740317      -0.63156657      -2.45157240
C       -0.90989263      -0.90692880      -0.91072765
C        0.90977584       0.90977584      -0.90977584
C       -0.00465871       1.77757030       0.00794375
H       -0.66225468       2.44313916      -0.64384735
H        0.64322798       2.43503045       0.67728295
C       -1.78241447       0.00034974      -0.00472694
H       -2.45427497      -0.65498947       0.64260836
H       -2.43311707       0.67328779      -0.65473579
C       -0.91132561       0.90220522       0.91563759
C       -0.01476271      -0.02253852       1.78660255
H       -0.67934791      -0.69751639       2.42135241
H        0.63392994       0.61504881       2.47327442
C        0.01484550      -1.77751727      -0.01636693
H        0.67870853      -2.42144646      -0.68295456
H       -0.62264859      -2.45592969       0.64226336
C        1.78714474       0.01002794       0.00389507
H        2.44202412       0.67113390       0.66197326
H        2.45385902      -0.65136977      -0.64189061
C        0.91606151      -0.90478549       0.90901405
