189
Properties=species:S:1:pos:R:3 pbc="F F F"
C        0.00000000       0.00000000       0.00000000
C        0.91863305       0.91863305      -0.91863305
C        0.53870169       0.71444938      -2.37408987
C        1.23250168       1.64761624      -3.39049574
H        0.79975420       1.35283633      -4.35325372
C        2.78593832       1.43466627      -3.49961801
H        2.94810275       0.34925645      -3.54295031
N        3.53136407       1.85531135      -2.30090041
C        3.76583892       3.16340730      -1.93063394
O        3.38957605       4.13390971      -2.57670376
C        4.52063192       3.31909441      -0.60493022
N        5.95739258       3.19835849      -0.73731746
C        6.56704732       1.97601883      -0.79727314
O        5.93711968       0.92563616      -0.90831002
C        8.06578526       2.02422193      -0.67428759
C        3.40976356       2.02501013      -4.78471929
C        2.92743201       1.34511761      -6.05848961
Br       3.79958901       2.15523808      -7.60448643
N        0.83040640       3.03271354      -3.15988258
C        0.51530470       3.88648146      -4.19691816
O        0.51771991       3.54829012      -5.37941090
C        0.18927344       5.31758405      -3.76596412
N        1.17912279       6.22682344      -4.30335437
C        1.98328987       6.98255740      -3.48565571
O        1.84928647       7.05373564      -2.26798255
C        3.00629071       7.79573408      -4.23164616
H        1.94072564       0.60570739      -0.70026043
H        0.75575299       1.94351511      -0.57758881
H       -0.54689491       0.84887124      -2.48180557
H        0.73860483      -0.32806021      -2.65806843
H        4.14822884       1.16684808      -1.86205557
H        4.15571166       2.56557568       0.10670004
H        4.29925652       4.30577253      -0.19237489
H        6.51613281       4.03920414      -0.65545603
H        8.47304779       2.85385723      -1.26367612
H        8.49963549       1.09267283      -1.04024721
H        8.33520495       2.15961801       0.37735445
H        3.22085507       3.10174079      -4.84732794
H        4.50146444       1.91891214      -4.72208707
H        1.85633914       1.45349232      -6.23417877
H        3.19165927       0.28395989      -6.07903195
H        1.22201758       3.49906993      -2.34645387
H        0.11994837       5.39562696      -2.67695349
H       -0.78092960       5.58533110      -4.19400497
H        1.41922968       6.11954331      -5.28200661
H        3.43474334       7.21871679      -5.05507849
H        3.81448161       8.07768572      -3.55176041
H        2.53109193       8.69884892      -4.62430066
C       -0.91863305      -0.91863305      -0.91863305
C       -1.60422162      -1.96469106      -0.05832827
C       -2.65346819      -2.84452566      -0.77261981
H       -3.03437166      -3.49465905       0.02318646
C       -2.05517569      -3.78039489      -1.88465203
H       -1.15121530      -4.23335841      -1.45573581
N       -1.56013186      -3.05829602      -3.06914794
C       -2.35624017      -2.47223624      -4.03140374
O       -3.58084707      -2.50321275      -4.01612970
C       -1.58066065      -1.73453907      -5.12945683
N       -1.10461956      -2.60187152      -6.18657746
C        0.04011161      -3.33590516      -6.04454574
O        0.63625535      -3.43396145      -4.97335977
C        0.52762178      -3.97608470      -7.31583185
C       -2.98481727      -4.94799405      -2.28668167
C       -3.22698294      -5.94339482      -1.16066147
Br      -4.38824659      -7.37830980      -1.79275714
N       -3.77926266      -2.02685990      -1.21687996
C       -5.08752889      -2.44015782      -1.07101760
O       -5.40914267      -3.50000667      -0.53627160
C       -6.12602571      -1.48491873      -1.66187718
N       -6.82312902      -2.13478917      -2.75138242
C       -6.77193717      -1.64574032      -4.03382549
O       -6.25802144      -0.57403877      -4.33894445
C       -7.48626951      -2.51032876      -5.03707267
H       -0.23954422      -1.35389593      -1.65325331
H       -1.62415276      -0.24392838      -1.40877577
H       -2.10331325      -1.46353080       0.78306214
H       -0.84428754      -2.61746254       0.39313704
H       -0.59275216      -3.22815665      -3.35622368
H       -0.72778917      -1.21039160      -4.67640653
H       -2.23750155      -0.98455156      -5.57535082
H       -1.56849362      -2.55645999      -7.08583937
H       -0.31199911      -4.39935058      -7.87923146
H        1.22929714      -4.77834102      -7.08351165
H        1.03120393      -3.22144887      -7.92722357
H       -3.94338600      -4.56971389      -2.65682391
H       -2.52937104      -5.47981358      -3.13327904
H       -3.73478077      -5.51243556      -0.29679390
H       -2.29948289      -6.42182793      -0.83334028
H       -3.62466300      -1.42329875      -2.01957962
H       -5.66235827      -0.54742408      -1.98274647
H       -6.85811782      -1.25889616      -0.88139249
H       -7.15474021      -3.07828322      -2.58775617
H       -7.30248676      -3.56899689      -4.83705497
H       -7.12103097      -2.28130329      -6.04159347
H       -8.55963783      -2.30798591      -4.98661777
C       -0.91863305       0.91863305       0.91863305
C       -1.87708936       1.70632798       0.04382361
C       -2.94541853       2.53586997       0.78932516
H       -3.53319092       2.98945987      -0.01680654
C       -2.35793167       3.71316341       1.64912752
H       -1.60754971       4.21179257       1.02096723
N       -1.59305379       3.26798175       2.82654029
C       -2.14250893       2.74056213       3.97680910
O       -3.34610511       2.59839272       4.15569169
C       -1.11301617       2.30509227       5.02654811
N       -0.64150532       3.38957361       5.86198961
C        0.33846240       4.24263977       5.43616192
O        0.75637417       4.24789556       4.27954448
C        0.88764934       5.14142558       6.51051854
C       -3.39929495       4.78994240       2.03025564
C       -3.95320211       5.54670204       0.83113508
Br      -5.23217760       6.88972487       1.43741106
N       -3.85140926       1.65261333       1.51897993
C       -5.21671482       1.85124315       1.53074635
O       -5.77660719       2.75559376       0.91321998
C       -5.99481222       0.86940609       2.40860330
N       -6.62981319       1.58384088       3.49564653
C       -6.32269396       1.32059641       4.80821262
O       -5.60487130       0.39420825       5.17192511
C       -7.02123476       2.22846973       5.78396645
H       -0.22360440       1.55698390       1.46610516
H       -1.43076580       0.24080460       1.60528651
H       -2.40041557       1.01130367      -0.62793733
H       -1.30287652       2.37653630      -0.61079977
H       -0.63553978       3.61464186       2.92695085
H       -0.25783125       1.83806981       4.51868624
H       -1.57155152       1.55330901       5.67254341
H       -0.96256469       3.42629831       6.82192998
H        0.07704553       5.52957500       7.13805166
H        1.41117522       5.98504896       6.05868179
H        1.58659172       4.57292852       7.13113170
H       -4.22326912       4.34719340       2.59946127
H       -2.92284824       5.50970620       2.70990921
H       -4.49951048       4.91542103       0.12907871
H       -3.16984128       6.08991760       0.29489223
H       -3.49131746       1.21423186       2.36199206
H       -5.34560782       0.06971471       2.77720629
H       -6.78184049       0.42071136       1.79585463
H       -7.12914279       2.43315911       3.25847770
H       -7.04069675       3.25595981       5.41188207
H       -6.48792253       2.21790027       6.73810493
H       -8.04420649       1.87364187       5.93639314
C        0.91863305      -0.91863305       0.91863305
C        1.13666192      -0.23448590       2.25609312
C        1.88300011      -1.06290110       3.32471245
H        1.90380678      -0.40276478       4.19927269
C        3.37639286      -1.38687070       2.95695904
H        3.81153731      -0.45343379       2.57533840
N        3.52337798      -2.32947601       1.83472184
C        3.27552709      -3.68505352       1.89929955
O        2.91744393      -4.26607324       2.91667236
C        3.45333264      -4.42390958       0.56741434
N        4.82635052      -4.78437938       0.28233864
C        5.70556426      -3.87980686      -0.24503183
O        5.44094251      -2.68371678      -0.35359343
C        7.00253696      -4.47877183      -0.71701401
C        4.24006619      -1.81375452       4.16567229
C        4.42207575      -0.71039871       5.19856477
Br       5.54567729      -1.35668394       6.65695229
N        1.09028945      -2.22997659       3.70273648
C        0.95363354      -2.62850260       5.01656817
O        1.45488425      -2.02607665       5.96446004
C        0.14784115      -3.91421595       5.21076452
N        0.99968259      -4.94542210       5.76419591
C        1.24850804      -6.11483076       5.08816418
O        0.68355206      -6.43917962       4.04827298
C        2.22747739      -7.01837340       5.78782016
H        1.84325102      -1.04904128       0.35440115
H        0.39392352      -1.87227651       1.01065688
H        0.16103542       0.05129021       2.67403669
H        1.67924886       0.70771678       2.09708097
H        4.09993516      -2.03485861       1.04233872
H        3.06506655      -3.79581470      -0.24629395
H        2.86045677      -5.34064643       0.59630074
H        5.08978924      -5.75915723       0.36184650
H        7.36703515      -5.22117849       0.00236750
H        7.75690210      -3.69787430      -0.82222087
H        6.84345881      -4.96036832      -1.68635863
H        3.82005440      -2.70329028       4.64657912
H        5.22983484      -2.11585322       3.79677559
H        3.48988862      -0.38905938       5.66506223
H        4.93521145       0.15969590       4.77913556
H        1.04136425      -2.99286238       3.03331475
H       -0.31546879      -4.23495055       4.27304706
H       -0.64519960      -3.70833980       5.93526627
H        1.58582540      -4.68589861       6.54905559
H        3.04766838      -6.44009888       6.22077135
H        2.64761892      -7.72699467       5.06931415
H        1.70844538      -7.56787069       6.57792544
