141
Properties=species:S:1:pos:R:3 pbc="F F F"
C        0.00000000       0.00000000       0.00000000
N        4.01995332       4.40581337      -2.56503838
C        3.41092706       3.35918447      -3.38242857
H        4.22038240       2.72195132      -3.76089253
C        2.49973244       2.49582628      -2.52017559
C        3.02405075       1.35451917      -1.88688616
C        2.21951956       0.54879085      -1.07619340
C        0.88178262       0.88178262      -0.88178262
C        0.34396294       2.01739193      -1.48088921
C        1.15081462       2.82437193      -2.28810428
C        2.74429404       3.94560091      -4.52121945
C        2.19484378       4.42893310      -5.45982886
C        1.47042389       4.86922274      -6.73615743
C        0.91468069       5.08910397      -7.77586425
C        0.24500345       5.27395269      -9.07387803
H       -0.83565517       5.29217811      -8.88412394
C        0.54495482       4.15536749     -10.06349482
C        1.83854986       3.62168732     -10.21497670
C        2.09408621       2.61320471     -11.14830460
C        1.06168696       2.13784978     -11.95194786
C       -0.22303417       2.66157225     -11.83205749
C       -0.47893908       3.66676288     -10.89460264
Br       1.40800789       0.77779351     -13.21814362
N        0.62301619       6.56521673      -9.64035829
H        3.27913820       4.99948787      -2.19675399
H        4.58907823       4.99961495      -3.16441810
H        4.07227288       1.09173500      -2.01727087
H        2.64775285      -0.32898337      -0.59990198
H       -0.69746775       2.28643411      -1.32588057
H        0.71190900       3.71319742      -2.73678217
H        2.66111766       3.98376786      -9.60079560
H        3.09895747       2.20881928     -11.23883477
H       -1.03036173       2.29643801     -12.46170840
H       -1.48827721       4.06699128     -10.81689230
H        0.17140005       6.66169101     -10.54769070
H        1.62335016       6.55309325      -9.82959098
N       -4.60050185      -2.66221957      -3.72808364
C       -3.36438802      -3.37463815      -3.41351394
H       -2.82141823      -3.52671229      -4.35509573
C       -2.49305517      -2.51905785      -2.50362130
C       -1.55289228      -1.64062093      -3.07194289
C       -0.74805483      -0.82987690      -2.26657208
C       -0.88178262      -0.88178262      -0.88178262
C       -1.81896084      -1.72779715      -0.29548609
C       -2.62588694      -2.53502468      -1.10237920
C       -3.66861687      -4.67594689      -2.86655063
C       -3.91936551      -5.74850596      -2.41573428
C       -4.05218680      -7.16833280      -1.85528446
C       -4.03047442      -8.29743395      -1.45174054
C       -3.91975474      -9.68901468      -0.98406475
H       -3.78746740      -9.65801363       0.10483415
C       -2.73784625     -10.43057488      -1.59539600
C       -2.40692974     -10.31012091      -2.95816322
C       -1.33316459     -11.02092978      -3.50150116
C       -0.58764927     -11.87259611      -2.69123923
C       -0.90586833     -12.02103064      -1.34369661
C       -1.97693633     -11.30570502      -0.79978510
Br       0.86121960     -12.83828526      -3.42687937
N       -5.16322035     -10.40036782      -1.26500304
H       -5.11072930      -2.50335401      -2.86129675
H       -5.18948839      -3.26492403      -4.29869886
H       -1.44936456      -1.57820794      -4.15370624
H       -0.02755570      -0.16129289      -2.72982287
H       -1.93315819      -1.76623539       0.78454665
H       -3.35930043      -3.17994346      -0.62264471
H       -2.98099382      -9.65434142      -3.61034589
H       -1.08984906     -10.90251915      -4.55424330
H       -0.32914723     -12.68928402      -0.70935343
H       -2.21366688     -11.43658090       0.25464142
H       -5.05655209     -11.36544294      -0.95878673
H       -5.28840880     -10.44310513      -2.27452046
N       -3.91132330       4.48648715       2.59299461
C       -3.41214052       3.36096490       3.37943468
H       -4.27736972       2.75290032       3.67295622
C       -2.50117341       2.49468761       2.51987329
C       -3.05020729       1.42422917       1.79101964
C       -2.24537557       0.61885206       0.98027618
C       -0.88178262       0.88178262       0.88178262
C       -0.31757258       1.94768220       1.57698930
C       -1.12443873       2.75464129       2.38421080
C       -2.78272655       3.84142474       4.58696310
C       -2.26395292       4.23742579       5.58222704
C       -1.59339453       4.56105161       6.92135792
C       -1.08923087       4.68841908       8.00199896
C       -0.48891807       4.75951388       9.34440222
H        0.60045106       4.72383144       9.21726651
C       -0.90998376       3.60685924      10.24697413
C       -2.23832780       3.14370049      10.29318559
C       -2.60556313       2.10129577      11.14873662
C       -1.65142763       1.52060900      11.97944797
C       -0.33437528       1.97259362      11.96362667
C        0.03328834       3.01192800      11.10378679
Br      -2.14882947       0.11448409      13.14063145
N       -0.82672949       6.03707534       9.96478638
H       -3.11756481       5.05466585       2.30314940
H       -4.48086466       5.07850072       3.19374589
H       -4.11748341       1.21758658       1.84620875
H       -2.69317625      -0.20354755       0.42904275
H        0.74475821       2.16235468       1.49725046
H       -0.66372996       3.58897337       2.90918525
H       -3.00103757       3.58828883       9.65635472
H       -3.63523307       1.75318666      11.15819179
H        0.41204978       1.52500042      12.61483404
H        1.06641024       3.35490502      11.10711158
H       -0.42538911       6.05512967      10.90026298
H       -1.83567023       6.07407144      10.09629272
N        2.54282332      -4.20834211       4.23963963
C        3.38792257      -3.40802101       3.35659651
H        3.91588049      -4.09965020       2.68769555
C        2.52033620      -2.49725395       2.49814416
C        2.06660398      -2.95204350       1.24680861
C        1.25610022      -2.14799520       0.44040839
C        0.88178262      -0.88178262       0.88178262
C        1.30078440      -0.41642754       2.12503215
C        2.10798254      -1.22325716       2.93205112
C        4.38112073      -2.70025351       4.12974015
C        5.19973038      -2.11689942       4.76697594
C        6.33710183      -1.32198941       5.41671283
C        7.28131273      -0.69300073       5.80533545
C        8.47175471       0.07836385       6.19944331
H        8.16210854       1.12586752       6.30440586
C        9.59544556       0.00515534       5.17352691
C        9.94247281      -1.19938103       4.53336004
C       10.99455898      -1.24654909       3.61448746
C       11.72185473      -0.09253570       3.33709417
C       11.40804633       1.10749284       3.97004209
C       10.35216777       1.15497885       4.88523753
Br      13.14831469      -0.15707927       2.09855106
N        8.94480427      -0.38238815       7.50139878
H        2.03692066      -3.57871815       4.85974125
H        3.13939545      -4.77718686       4.83652897
H        2.33839260      -3.94620869       0.89667745
H        0.92056317      -2.52139653      -0.52328824
H        1.00477853       0.56786451       2.47793291
H        2.41392459      -0.84329373       3.90467027
H        9.39049377      -2.11438013       4.74080722
H       11.23627724      -2.18608522       3.12424906
H       11.97732169       2.00930953       3.75977252
H       10.12304392       2.10067579       5.37323824
H        9.78205078       0.14413616       7.74286714
H        9.24439011      -1.35120154       7.41044274
