194
Properties=species:S:1:pos:R:3 pbc="F F F"
C        2.45432735       4.32915620      -7.83169669
C        2.97833247       3.86616873      -6.46803145
C        3.64406186       4.98232250      -5.57685328
C        4.38475249       4.31167745      -4.26295902
C        3.44386202       3.42547393      -3.40665148
C        3.38755976       2.02801661      -3.58648494
C        2.57872987       1.21667281      -2.78197517
C        1.79113223       1.79113223      -1.79113223
C        1.80468226       3.16708591      -1.59990350
C        2.62690642       3.97208315      -2.39641303
C        5.06348632       5.43278274      -3.38623656
C        5.94754799       4.93307183      -2.23847782
N        5.52680554       3.47594038      -4.77806920
C        2.61299340       6.07658006      -5.20119394
C        2.92326650       7.44967354      -5.29686423
C        1.98465647       8.43739607      -4.97653938
C        0.72052087       8.07207956      -4.53081581
C        0.38356749       6.72803485      -4.41377286
C        1.31800261       5.74558118      -4.75701374
Br      -0.54356442       9.40143182      -4.07902334
N        4.73050681       5.57420725      -6.43462713
H        1.87343215       3.52692132      -8.29779456
H        3.27656265       4.56497853      -8.51511758
H        1.80838956       5.20737909      -7.75083567
H        3.69637154       3.05844643      -6.65917015
H        2.14454516       3.39450550      -5.93755379
H        3.98847075       1.54659146      -4.35635576
H        2.57792589       0.14106268      -2.93720020
H        1.18720396       3.62777405      -0.83297414
H        2.60726998       5.04341538      -2.20936001
H        4.30659823       6.09875789      -2.95868715
H        5.69032459       6.07714056      -4.01624352
H        5.44733003       4.18011062      -1.62348939
H        6.21718642       5.76998470      -1.58636576
H        6.88204934       4.50475757      -2.61461430
H        5.98164102       3.03117029      -3.98208777
H        6.21651447       4.12734170      -5.15609290
H        3.90815528       7.77284419      -5.62856325
H        2.25577372       9.48548164      -5.07871580
H       -0.59942565       6.43145131      -4.05904302
H        1.01024577       4.70647374      -4.65421962
H        4.29732179       6.00980948      -7.24750504
H        5.26921287       4.78854646      -6.80272336
C       -4.19440103      -2.54473119      -7.87604802
C       -4.20075843      -2.75386468      -6.35790954
C       -4.08122924      -4.24858261      -5.87342580
C       -4.35401551      -4.35634895      -4.24902450
C       -3.43335532      -3.43857460      -3.40405751
C       -3.85683816      -2.16064950      -2.98457364
C       -3.05054541      -1.34843100      -2.17840144
C       -1.79113223      -1.79113223      -1.79113223
C       -1.33212078      -3.03571409      -2.20383680
C       -2.14836495      -3.85039296      -2.99664468
C       -4.25038573      -5.85672666      -3.77539324
C       -4.66834794      -6.12514457      -2.32560513
N       -5.79170185      -3.97321957      -4.01589370
C       -2.72474400      -4.86165568      -6.30436772
C       -2.64319912      -6.14780896      -6.87879618
C       -1.41988044      -6.69253072      -7.28618076
C       -0.24673473      -5.97034735      -7.10633415
C       -0.28804925      -4.70399142      -6.53333454
C       -1.51595987      -4.15554888      -6.14908878
Br       1.40915030      -6.70898247      -7.63705856
N       -5.21122969      -4.97401930      -6.55409220
H       -4.11846597      -1.47657975      -8.10310230
H       -5.12417472      -2.90141202      -8.33107201
H       -3.35524357      -3.05094056      -8.36042018
H       -5.12859607      -2.30756035      -5.97783169
H       -3.39247067      -2.14591028      -5.93822351
H       -4.83581820      -1.78181149      -3.27378828
H       -3.42021486      -0.37802539      -1.85794852
H       -0.34599531      -3.38886655      -1.91309030
H       -1.74886511      -4.81750067      -3.29367959
H       -3.22940935      -6.23157180      -3.90306212
H       -4.87359789      -6.49775101      -4.41235977
H       -4.19127211      -5.43984206      -1.61981586
H       -4.38789967      -7.14439240      -2.04124480
H       -5.75318355      -6.04451183      -2.20372582
H       -5.97312698      -4.00795648      -3.01381563
H       -6.36061343      -4.71826880      -4.42106685
H       -3.53969876      -6.74806579      -7.02179818
H       -1.39946891      -7.68047572      -7.74002652
H        0.62408026      -4.13395253      -6.38119641
H       -1.50202036      -3.16003272      -5.70888605
H       -5.05817998      -4.93574602      -7.56071031
H       -6.05315847      -4.42081657      -6.38650766
C       -7.52921409       5.01033890       2.07562725
C       -6.07783623       4.74487791       2.48981852
C       -5.85986444       4.34498897       3.99838424
C       -4.25176107       4.33689493       4.37073295
C       -3.40555211       3.42794968       3.44248564
C       -2.73279814       3.95049637       2.31876679
C       -1.92567504       3.14503772       1.50666509
C       -1.79113223       1.79113223       1.79113223
C       -2.45680947       1.23735665       2.87750555
C       -3.24989440       2.05006598       3.69544220
C       -4.04311691       3.95350581       5.88588290
C       -2.61144041       4.09317006       6.41448716
N       -3.76488732       5.75759878       4.25832901
C       -6.56572503       3.00369264       4.32134972
C       -7.34423529       2.83904884       5.48652014
C       -7.99782109       1.63355072       5.76722011
C       -7.86777571       0.55733539       4.89830514
C       -7.09936172       0.68016080       3.74585269
C       -6.46716714       1.89436158       3.45906880
Br      -8.73243237      -1.07792047       5.28237884
N       -6.48591003       5.45871953       4.79471163
H       -7.59068295       5.11931770       0.98814738
H       -7.90322283       5.94294909       2.51048684
H       -8.19906907       4.19796950       2.36956574
H       -5.50731977       5.65238258       2.25428577
H       -5.68145888       3.97122438       1.82392120
H       -2.82027252       5.00580969       2.06533576
H       -1.40632897       3.58854362       0.66131618
H       -2.36471025       0.17834544       3.10489647
H       -3.74992362       1.57410746       4.53601429
H       -4.36827831       2.92439642       6.07136854
H       -4.68262400       4.57646960       6.52461507
H       -1.87748059       3.60812925       5.76532020
H       -2.53513386       3.63338438       7.40501863
H       -2.33023471       5.14517277       6.52601372
H       -2.76597647       5.76982033       4.45910229
H       -4.20192997       6.27609104       5.02192808
H       -7.45679530       3.65571466       6.19705276
H       -8.60234019       1.55037405       6.66725691
H       -6.98485555      -0.15740001       3.06361314
H       -5.87949588       1.94718448       2.54425877
H       -7.48479119       5.47544744       4.59439768
H       -6.11781173       6.33094910       4.41172188
C        7.90736421      -4.08772763       2.62008839
C        6.38580898      -4.12851186       2.79821182
C        5.86937490      -4.04898847       4.28487428
C        4.24902047      -4.35615048       4.35421800
C        3.40396556      -3.43404376       3.43797811
C        3.01865259      -3.83977078       2.14363793
C        2.21259817      -3.03335541       1.33142427
C        1.79113223      -1.79113223       1.79113223
C        2.16961084      -1.34934929       3.05271154
C        2.96245930      -2.16602771       3.86691558
C        3.74364452      -4.29241912       5.84644199
C        2.29758368      -4.74448571       6.07702824
N        4.05276896      -5.79011946       3.93792670
C        6.26043288      -2.69691955       4.93341497
C        6.80740136      -2.63007852       6.23232438
C        7.17897222      -1.41020416       6.80941554
C        6.98975785      -0.22645664       6.10720175
C        6.44300781      -0.25345676       4.82891063
C        6.09473357      -1.47738564       4.24847831
Br       7.47198730       1.42432798       6.88923141
N        6.55826695      -5.17971586       5.00135837
H        8.15402541      -3.98563835       1.55848427
H        8.37397515      -5.01531460       2.96736901
H        8.36445105      -3.24954732       3.15260595
H        6.03358232      -5.05447811       2.32592768
H        5.96198270      -3.31656142       2.19806033
H        3.33514438      -4.80491933       1.75135426
H        1.91906974      -3.38956044       0.34755859
H        1.85195357      -0.37656755       3.41943104
H        3.23203956      -1.78040307       4.84760273
H        3.84309540      -3.27692088       6.24402699
H        4.38025132      -4.91571916       6.48773819
H        1.59602708      -4.26773321       5.38716974
H        1.98738183      -4.49048283       7.09567221
H        2.19936548      -5.82967114       5.97238459
H        3.05408525      -5.99210137       3.94871247
H        4.45450588      -6.36586020       4.67958300
H        6.95659792      -3.53555065       6.81741416
H        7.61257648      -1.40081956       7.80657511
H        6.28376086       0.66684421       4.27415203
H        5.67422049      -1.45200818       3.24471046
H        7.56213487      -5.00593591       4.98656554
H        6.41883054      -6.01341401       4.42823814
C       -0.00445707       0.01189536      -1.78238275
H       -0.66409135       0.67374010      -2.43557963
H        0.65740317      -0.63156657      -2.45157240
C       -0.90989263      -0.90692880      -0.91072765
C        0.90977584       0.90977584      -0.90977584
C       -0.00465871       1.77757030       0.00794375
H       -0.66225468       2.44313916      -0.64384735
H        0.64322798       2.43503045       0.67728295
C       -1.78241447       0.00034974      -0.00472694
H       -2.45427497      -0.65498947       0.64260836
H       -2.43311707       0.67328779      -0.65473579
C       -0.91132561       0.90220522       0.91563759
C       -0.01476271      -0.02253852       1.78660255
H       -0.67934791      -0.69751639       2.42135241
H        0.63392994       0.61504881       2.47327442
C        0.01484550      -1.77751727      -0.01636693
H        0.67870853      -2.42144646      -0.68295456
H       -0.62264859      -2.45592969       0.64226336
C        1.78714474       0.01002794       0.00389507
H        2.44202412       0.67113390       0.66197326
H        2.45385902      -0.65136977      -0.64189061
C        0.91606151      -0.90478549       0.90901405
