173
Properties=species:S:1:pos:R:3 pbc="F F F"
C        0.00000000       0.00000000       0.00000000
C        1.54442332       3.41925218      -6.92179267
C        2.06842845       2.95626471      -5.55812743
C        2.73415784       4.07241848      -4.66694926
C        3.47484846       3.40177342      -3.35305500
C        2.53395800       2.51556991      -2.49674745
C        2.47765573       1.11811258      -2.67658091
C        1.66882585       0.30676879      -1.87207114
C        0.88122820       0.88122820      -0.88122820
C        0.89477824       2.25718189      -0.68999947
C        1.71700239       3.06217912      -1.48650900
C        4.15358230       4.52287871      -2.47633254
C        5.03764397       4.02316780      -1.32857379
N        4.61690151       2.56603635      -3.86816518
C        1.70308938       5.16667604      -4.29128991
C        2.01336247       6.53976952      -4.38696020
C        1.07475245       7.52749204      -4.06663535
C       -0.18938315       7.16217554      -3.62091179
C       -0.52633653       5.81813083      -3.50386883
C        0.40809859       4.83567715      -3.84710971
Br      -1.45346844       8.49152779      -3.16911931
N        3.82060279       4.66430322      -5.52472310
H        0.96352812       2.61701729      -7.38789054
H        2.36665862       3.65507451      -7.60521355
H        0.89848553       4.29747506      -6.84093165
H        2.78646751       2.14854240      -5.74926612
H        1.23464114       2.48460148      -5.02764977
H        3.07856673       0.63668744      -3.44645173
H        1.66802186      -0.76884134      -2.02729618
H        0.27729994       2.71787003       0.07692988
H        1.69736596       4.13351136      -1.29945598
H        3.39669421       5.18885387      -2.04878313
H        4.78042057       5.16723653      -3.10633950
H        4.53742600       3.27020660      -0.71358536
H        5.30728239       4.86008067      -0.67646173
H        5.97214531       3.59485355      -1.70471027
H        5.07173699       2.12126627      -3.07218375
H        5.30661045       3.21743768      -4.24618888
H        2.99825126       6.86294017      -4.71865923
H        1.34586969       8.57557761      -4.16881177
H       -1.50932968       5.52154728      -3.14913900
H        0.10034174       3.79656972      -3.74431560
H        3.38741776       5.09990546      -6.33760102
H        4.35930885       3.87864244      -5.89281934
C       -0.81946722      -5.32320580      -5.74279514
C       -1.46731237      -4.23261783      -4.88289038
C       -2.73753835      -4.67440356      -4.06158367
C       -3.47910668      -3.36244472      -3.38812548
C       -2.53682345      -2.50306601      -2.50638590
C       -1.88315755      -1.36566432      -3.02352735
C       -1.07214811      -0.55634846      -2.21916921
C       -0.88122820      -0.88122820      -0.88122820
C       -1.49201281      -2.00695004      -0.34299675
C       -2.31442155      -2.80386660      -1.14740237
C       -4.75874113      -3.81075673      -2.58329569
C       -5.64840869      -2.67535944      -2.06561744
N       -4.00677604      -2.52278913      -4.52153788
C       -2.37168668      -5.76560108      -3.02376757
C       -3.16285966      -6.92169452      -2.85553801
C       -2.82055642      -7.91627441      -1.93204902
C       -1.68981135      -7.76468776      -1.13920506
C       -0.89264768      -6.63284385      -1.27017161
C       -1.22712310      -5.65312503      -2.21063732
Br      -1.23403544      -9.09528287       0.12213964
N       -3.69000472      -5.23674380      -5.08288059
H        0.13553767      -4.96436152      -6.13961211
H       -1.44667169      -5.57656791      -6.60370708
H       -0.62460289      -6.23699825      -5.17529111
H       -1.72320729      -3.40469129      -5.55637746
H       -0.69448780      -3.83656795      -4.21583663
H       -2.00789096      -1.08552502      -4.06828992
H       -0.60169247       0.32404643      -2.64883065
H       -1.34372320      -2.27461973       0.70010285
H       -2.77397046      -3.67345605      -0.68290678
H       -4.47711688      -4.43120256      -1.72601176
H       -5.39167355      -4.45420179      -3.20812126
H       -5.07914989      -1.90813037      -1.53393770
H       -6.39535888      -3.07575845      -1.37270747
H       -6.19410198      -2.19414268      -2.88346448
H       -4.44609783      -1.69259875      -4.12649043
H       -4.76645892      -3.05511103      -4.94866706
H       -4.06339430      -7.06738584      -3.44907051
H       -3.44652805      -8.80093346      -1.84279757
H       -0.01063137      -6.50077611      -0.64994913
H       -0.57278923      -4.78610054      -2.28233729
H       -3.26138915      -6.05969772      -5.50383737
H       -3.74919268      -4.54746382      -5.83411412
C       -7.05621985       1.89660663       2.93264168
C       -5.61379099       2.32576821       2.64326139
C       -4.77905689       2.80258469       3.89188400
C       -3.34707120       3.46955141       3.41305427
C       -2.49529737       2.53199492       2.51898307
C       -2.54436021       2.61576546       1.11222356
C       -1.73957245       1.80757042       0.30052291
C       -0.88122820       0.88122820       0.88122820
C       -0.82254444       0.75585609       2.26355907
C       -1.61761792       1.57711928       3.07095331
C       -2.52600732       3.96021661       4.66656963
C       -1.26261061       4.77032728       4.35644768
N       -3.67760116       4.72453914       2.64896274
C       -4.60190191       1.64839985       4.91075357
C       -4.80143640       1.84503216       6.29362364
C       -4.66082454       0.79716064       7.21089467
C       -4.29446241      -0.46707622       6.76631798
C       -4.07886100      -0.69475755       5.41155968
C       -4.24306598       0.35071349       4.49710599
Br      -4.08478949      -1.88019197       8.00258115
N       -5.59128463       3.91036641       4.50797808
H       -7.49219121       1.43561229       2.04063245
H       -7.68451385       2.75684666       3.18558618
H       -7.11690892       1.17150350       3.74847982
H       -5.66290231       3.12677818       1.89459556
H       -5.11551110       1.48940349       2.14197779
H       -3.20887995       3.32764325       0.62518270
H       -1.79027900       1.91583255      -0.77963485
H       -0.16040045       0.02964910       2.72819053
H       -1.53673174       1.44590856       4.14769299
H       -2.23228032       3.11039641       5.29165447
H       -3.15766953       4.58582550       5.31050156
H       -0.62432828       4.28121416       3.61567552
H       -0.67277785       4.90180775       5.26923920
H       -1.51263142       5.77051474       3.98856298
H       -2.80584810       5.13802801       2.32131090
H       -4.05458884       5.38767542       3.32797276
H       -5.07513837       2.82513068       6.67958161
H       -4.83903245       0.98404387       8.26718276
H       -3.78471023      -1.67751512       5.05416149
H       -4.06831496       0.12665601       3.44625610
H       -6.47701550       3.52076928       4.82713946
H       -5.83366995       4.54862262       3.74847806
C        6.16073777      -4.81771474       0.90701566
C        4.82623376      -4.30114259       1.45544424
C        4.87423829      -3.69151830       2.90776899
C        3.34813799      -3.41080858       3.47073031
C        2.49809517      -2.51309343       2.53508675
C        1.61429726      -3.07009256       1.58795941
C        0.80626660      -2.26521851       0.77618067
C        0.88122820      -0.88122820       0.88122820
C        1.75665882      -0.29716143       1.78813934
C        2.55082869      -1.10645787       2.60840395
C        3.40419854      -2.81789546       4.93069956
C        2.05521591      -2.68793982       5.64622983
N        2.67879772      -4.75153685       3.62076847
C        5.77859319      -2.43370900       2.94875314
C        6.72797616      -2.23807830       3.97403774
C        7.55827052      -1.11150147       3.99910786
C        7.44070744      -0.14317963       3.00981710
C        6.50819388      -0.29758808       1.98988117
C        5.69698028      -1.43648120       1.95742397
Br       8.54592351       1.38852079       3.04977595
N        5.46415025      -4.77560777       3.76987109
H        6.05428078      -5.06756760      -0.15341243
H        6.47442991      -5.73292539       1.41959138
H        6.96039057      -4.07796549       0.99853618
H        4.12066411      -5.14115035       1.42246157
H        4.43837370      -3.56741498       0.74110370
H        1.53430817      -4.15031200       1.47708573
H        0.12217426      -2.73188072       0.07242171
H        1.82888799       0.78413088       1.87348297
H        3.21927534      -0.60578228       3.30527568
H        3.87669860      -1.83000110       4.92763150
H        4.04563682      -3.44124785       5.56711193
H        1.30251402      -2.18803148       5.03067247
H        2.17669269      -2.10335861       6.56377349
H        1.66496452      -3.66788764       5.93885698
H        1.72439239      -4.59787572       3.94291890
H        3.15185672      -5.22830780       4.39007249
H        6.83803664      -2.96851683       4.77329719
H        8.28929700      -1.00405507       4.79690701
H        6.40278989       0.45713962       1.21570634
H        4.98416332      -1.51831014       1.13875361
H        6.41502047      -4.95764476       3.45225901
H        4.94096482      -5.62770536       3.56210044
