157
Properties=species:S:1:pos:R:3 pbc="F F F"
C        0.00000000       0.00000000       0.00000000
C        0.88145253       0.88145253      -0.88145253
C        0.31529807       1.92962274      -1.59508531
C        1.12830020       2.73673482      -2.39266774
C        2.51832322       2.51340204      -2.49303889
C        3.08113224       1.43834340      -1.76390041
C        2.24892977       0.63500073      -0.96173606
C        4.55297220       1.12700620      -1.78488858
C        3.36843237       3.44531358      -3.35654582
H        4.42337280       3.17272018      -3.27077879
C        2.97939218       3.41591841      -4.89379656
H        1.89820541       3.56791498      -4.95409837
C        3.35446880       2.11798814      -5.60599008
C        4.70340657       1.70214250      -5.62874522
C        5.09081043       0.51843551      -6.25938410
C        4.13474267      -0.26587222      -6.88982613
C        2.79866525       0.12682526      -6.90066013
C        2.39409938       1.31790493      -6.26928846
C        0.93988701       1.70025283      -6.33877036
N        3.54975490       4.58259200      -5.61044041
N        3.31037688       4.83292196      -2.82423829
H       -0.75083733       2.12995808      -1.53604372
H        0.65881457       3.55358262      -2.93772357
H        2.67668261      -0.18944584      -0.39348400
H        4.77513557       0.19125018      -1.25785285
H        5.11578472       1.92768595      -1.29309568
H        4.91012519       0.99915334      -2.81059001
H        5.47360162       2.30402745      -5.15266599
H        6.13666729       0.22445707      -6.25583357
H        2.06395835      -0.49268391      -7.40993601
H        0.82528135       2.66987472      -6.83461698
H        0.50681266       1.74211002      -5.33465443
H        0.35768780       0.97186396      -6.91364965
H        3.49015053       5.36545275      -4.94933703
H        4.55274031       4.43917762      -5.71414618
H        3.52115595       4.79355222      -1.82576196
H        2.34972254       5.16846975      -2.88726724
C        4.52847046      -1.48765485      -7.54237930
C        4.85821748      -2.51089780      -8.08889259
Br       5.39139053      -4.16539510      -8.97255834
C       -0.88145253      -0.88145253      -0.88145253
C       -2.22164396      -0.56229649      -1.05606567
C       -3.01994313      -1.36784445      -1.86991519
C       -2.49710165      -2.50453597      -2.52312654
C       -1.13045021      -2.82070895      -2.33221690
C       -0.33748737      -1.99728599      -1.51089320
C       -0.46973581      -3.99703745      -2.99809372
C       -3.40673006      -3.33579753      -3.42776418
H       -2.83037343      -4.13380788      -3.90269046
C       -4.62514725      -4.00218636      -2.66177355
H       -5.11830779      -3.20956409      -2.09234688
C       -4.22337055      -5.13525073      -1.71982574
C       -3.54081214      -6.25859658      -2.23488558
C       -3.14581650      -7.31311103      -1.40970251
C       -3.43780620      -7.26740095      -0.05348943
C       -4.12621419      -6.18144243       0.48150598
C       -4.53084344      -5.11167829      -0.33877104
C       -5.29422165      -3.97975032       0.29506177
N       -5.66442098      -4.46479129      -3.61357504
N       -3.88811778      -2.51123930      -4.56818005
H       -2.65329167       0.30818948      -0.57006229
H       -4.06571553      -1.09198862      -1.99241662
H        0.71585209      -2.23143584      -1.36513703
H        0.55385651      -4.14490681      -2.63318830
H       -0.41751543      -3.83844699      -4.08060393
H       -1.01305302      -4.92188188      -2.78493363
H       -3.31025206      -6.32469005      -3.29535295
H       -2.61867548      -8.16175350      -1.83652895
H       -4.35823559      -6.16698009       1.54400524
H       -6.28046033      -3.87919954      -0.17011317
H       -4.73911293      -3.04174818       0.19728399
H       -5.45678854      -4.15114244       1.36472958
H       -5.68486765      -3.76031917      -4.35975349
H       -5.32051328      -5.29819473      -4.08735611
H       -3.07493437      -2.06750858      -4.99802719
H       -4.45532537      -1.74652826      -4.20360590
C       -3.03330569      -8.35240516       0.80251594
C       -2.69453651      -9.26109619       1.51942043
Br      -2.14677541     -10.73037273       2.67859437
C       -0.88145253       0.88145253       0.88145253
C       -1.74447552       0.29665451       1.79887609
C       -2.54161101       1.10865204       2.60743972
C       -2.49277866       2.51624653       2.51573895
C       -1.61201193       3.09861995       1.57274417
C       -0.81245293       2.26679848       0.76641515
C       -1.46832380       4.58734148       1.40920170
C       -3.36432528       3.36027718       3.44568931
H       -3.15651358       4.42174086       3.28861733
C       -4.91987712       3.13083465       3.23839539
H       -5.09280248       2.05175532       3.27566096
C       -5.46206627       3.69120373       1.92517702
C       -5.32084241       5.06779479       1.64565710
C       -5.79250073       5.62188713       0.45424218
C       -6.42559882       4.80854631      -0.47544855
C       -6.59662979       3.45014799      -0.22062713
C       -6.12653671       2.87830884       0.97644722
C       -6.36535639       1.40964378       1.20391004
N       -5.69468368       3.66173797       4.38636567
N       -2.98059033       3.12385470       4.86309210
H       -1.80260555      -0.78380038       1.89635931
H       -3.20575231       0.62378949       3.32057897
H       -0.12835198       2.70868355       0.04368524
H       -0.83259331       4.83971619       0.55192911
H       -1.00989092       5.02336653       2.30330890
H       -2.43953044       5.05516525       1.22517284
H       -4.83934568       5.72889775       2.36205162
H       -5.66484475       6.68449197       0.26762121
H       -7.10604470       2.82911910      -0.95395335
H       -6.96381152       1.25766314       2.10829838
H       -5.41384004       0.87654079       1.29319629
H       -6.91508758       0.95614600       0.37196781
H       -5.12312918       3.46574954       5.21606159
H       -5.69221400       4.67891593       4.33493419
H       -1.96819301       3.23665389       4.93562324
H       -3.16360597       2.14784099       5.09401257
C       -6.91459907       5.37454291      -1.70594707
C       -7.32413679       5.84856506      -2.73648958
Br      -7.98632464       6.61501878      -4.40278965
C        0.88145253      -0.88145253       0.88145253
C        0.79479120      -2.26382063       0.78139429
C        1.60949864      -3.06378141       1.58442271
C        2.52373334      -2.50058422       2.50044658
C        2.59796625      -1.09004264       2.59536716
C        1.77203516      -0.29662481       1.77700658
C        3.55211589      -0.38902296       3.52372813
C        3.41467506      -3.42103917       3.33457755
H        4.10367634      -2.82490730       3.93828814
C        2.60503490      -4.37169119       4.31238108
H        1.83747406      -4.86939809       3.71334661
C        1.94861465      -3.64528559       5.48454678
C        2.74994687      -2.90431096       6.38003647
C        2.19225039      -2.21684549       7.45953416
C        0.82110373      -2.26838886       7.66920398
C        0.00610094      -3.00595071       6.81409900
C        0.55489369      -3.70420099       5.72219810
C       -0.37558112      -4.50412464       4.85036668
N        3.45742910      -5.48167626       4.80368196
N        4.30674055      -4.21383815       2.44695843
H        0.10383991      -2.72803757       0.08328699
H        1.52376382      -4.14404350       1.48231344
H        1.82891512       0.78887303       1.84067869
H        3.37611390       0.69332258       3.54144728
H        4.58510018      -0.55296515       3.19850102
H        3.42679391      -0.74183038       4.55124424
H        3.82778328      -2.85729031       6.24522147
H        2.83603918      -1.65254214       8.12837661
H       -1.06481808      -3.04632119       6.99970734
H       -0.08809531      -5.56075672       4.85711163
H       -0.36307517      -4.12144680       3.82520549
H       -1.41029651      -4.44789259       5.20560532
H        4.05599654      -5.73850624       4.01043754
H        4.11683687      -5.10620415       5.48302310
H        4.76810601      -3.56484747       1.80751666
H        3.73234463      -4.81557065       1.85754426
C        0.24022144      -1.56168129       8.78129218
C       -0.24626748      -0.96981369       9.71266605
Br      -1.03287891      -0.01281385      11.21861883
