194
Properties=species:S:1:pos:R:3 pbc="F F F"
C        1.79177775       1.79177775      -1.79177775
C        2.64804497       1.20665087      -2.71430466
C        3.45760170       2.01691912      -3.51241738
C        3.43994173       3.42552336      -3.39389045
C        2.53357929       4.00747658      -2.47406381
C        1.72784600       3.17812134      -1.67108581
C        2.40768018       5.49928181      -2.31383487
C        4.34563380       4.28183577      -4.28127542
H        4.51108770       5.24834676      -3.79323628
C        5.64692324       3.69675188      -4.50369561
C        6.71945853       3.21452259      -4.68702476
C        8.11320849       2.59128310      -4.79622836
C        9.22229108       2.13380144      -4.79332649
C       10.59629187       1.60483806      -4.72421240
H       10.51073515       0.56590565      -4.38907089
C       11.49079774       2.38147120      -3.75694231
C       11.39553314       3.78959478      -3.68586391
C       12.20023918       4.53241124      -2.82092211
C       13.12946187       3.88104048      -2.02167177
C       13.26628312       2.49601277      -2.08661257
C       12.46269022       1.73369014      -2.95558693
C       12.66070722       0.24108408      -2.98561149
N       11.18171660       1.60124042      -6.06267980
N        3.68791771       4.53748706      -5.56127536
H        2.69673169       0.12665375      -2.82274339
H        4.11393279       1.53166166      -4.23273673
H        1.04215704       3.62120445      -0.95199716
H        1.56421217       5.76361744      -1.66680777
H        2.22882249       5.97725585      -3.28201608
H        3.31578576       5.90885197      -1.86084058
H       10.67864899       4.32588559      -4.30592143
H       12.09007744       5.61279098      -2.78035278
H       14.00497474       2.00290957      -1.45777789
H       11.77759399      -0.26683704      -2.58609301
H       13.52051920      -0.06272882      -2.37848765
H       12.85369249      -0.09992880      -4.00747970
H       12.13742806       1.25765353      -5.99296952
H       11.25842565       2.56501224      -6.38192222
H        3.52362370       3.64511405      -6.02317162
H        4.32736837       5.05498500      -6.16026686
C       13.96008622       4.64249535      -1.12509513
C       14.65573411       5.28021380      -0.37421219
Br      15.78053792       6.31135059       0.83990202
C       -1.79177775      -1.79177775      -1.79177775
C       -2.12801628      -3.07077870      -1.37020552
C       -2.92785743      -3.87555134      -2.18352943
C       -3.39391662      -3.42544017      -3.43999875
C       -3.07253400      -2.10461619      -3.83796949
C       -2.25973724      -1.30648012      -3.01083579
C       -3.56525924      -1.52032696      -5.13521066
C       -4.26381122      -4.33736392      -4.30756986
H       -4.17936747      -4.02062691      -5.35267637
C       -3.86593259      -5.72454542      -4.25689272
C       -3.53800543      -6.86787642      -4.21512403
C       -3.00047594      -8.30095117      -4.19929283
C       -2.50967996      -9.39474875      -4.24499030
C       -1.85954786     -10.71315585      -4.35263862
H       -1.17362028     -10.78956206      -3.50252934
C       -1.07979432     -10.89357246      -5.65584447
C       -1.60845546     -10.39479972      -6.86773665
C       -0.92924868     -10.54706409      -8.07725976
C        0.28577893     -11.21767412      -8.10027893
C        0.82196513     -11.74395425      -6.92691935
C        0.14736134     -11.59964077      -5.69968786
C        0.77401429     -12.19496766      -4.46644942
N       -2.86688240     -11.76240864      -4.21634578
N       -5.66567501      -4.20554414      -3.91546098
H       -1.77636971      -3.45364156      -0.41611755
H       -3.18238307      -4.87130398      -1.82464414
H       -1.99744612      -0.29715684      -3.32075569
H       -3.33763839      -0.45114328      -5.20585569
H       -4.65215314      -1.62084915      -5.21509213
H       -3.08401582      -2.01971636      -5.98174612
H       -2.56238431      -9.86953301      -6.87853869
H       -1.35725583     -10.13758581      -8.98837956
H        1.77224183     -12.27288906      -6.96501497
H        1.08408141     -11.40263227      -3.77829910
H        1.66271117     -12.78642772      -4.71256148
H        0.07078055     -12.86706607      -3.96495787
H       -2.40552341     -12.66408481      -4.31844289
H       -3.51121168     -11.69255354      -5.00159490
H       -5.75667973      -4.49243588      -2.94279375
H       -6.22087114      -4.86229120      -4.45945788
C        0.99228175     -11.37478151      -9.34517693
C        1.58397786     -11.50635896     -10.38777900
Br       2.54070044     -11.71910856     -12.07357838
C       -1.79177775       1.79177775       1.79177775
C       -3.10572326       1.42104509       2.04223216
C       -3.90981854       2.23459020       2.84252946
C       -3.42308742       3.44151560       3.39475252
C       -2.06936021       3.78580568       3.15995379
C       -1.27189339       2.95946913       2.34569063
C       -1.44816794       5.02512452       3.74750441
C       -4.33501798       4.31127252       4.26245450
H       -3.96318759       5.34143528       4.24804788
C       -5.70050557       4.35228826       3.79457691
C       -6.82595666       4.38609345       3.40895577
C       -8.22825882       4.47113111       2.80133001
C       -9.29154397       4.59763889       2.26023614
C      -10.56754449       4.80544375       1.55235409
H      -10.65009082       3.99529417       0.82032670
C      -10.64280586       6.15310932       0.83329606
C      -10.11298255       7.30996161       1.44804767
C      -10.16999750       8.55776734       0.82580769
C      -10.77473546       8.67541209      -0.41797343
C      -11.32970563       7.55879130      -1.03958846
C      -11.28125552       6.29396189      -0.42325012
C      -11.90335547       5.12565707      -1.14160976
N      -11.67307274       4.67425686       2.49830722
N       -4.29557614       3.84421753       5.64688646
H       -3.51640457       0.50659723       1.62312703
H       -4.93391322       1.91572155       3.02869642
H       -0.23627417       3.22917692       2.14990756
H       -0.36643667       5.05135686       3.57684385
H       -1.60086638       5.05642896       4.83079907
H       -1.87958143       5.91911701       3.28677987
H       -9.63800584       7.24646231       2.42598785
H       -9.73884789       9.42421205       1.32016127
H      -11.80611972       7.67107309      -2.01153061
H      -11.13089664       4.41346295      -1.44750963
H      -12.43507279       5.44562893      -2.04442369
H      -12.63492886       4.62563915      -0.49932462
H      -12.54347517       4.84560392       1.99897201
H      -11.59810095       5.42210321       3.18515597
H       -4.63440667       2.88443693       5.67306576
H       -4.95261500       4.39351011       6.19649510
C      -10.83342124       9.96009895      -1.06584350
C      -10.88257058      11.03602421      -1.60843469
Br     -10.96204091      12.77570434      -2.48575875
C        1.79177775      -1.79177775       1.79177775
C        1.79139933      -3.16782249       1.60977869
C        2.59333318      -3.96997084       2.42363418
C        3.39843602      -3.41586404       3.44505548
C        3.41535075      -2.00724410       3.59252484
C        2.59675558      -1.21107532       2.76922226
C        4.27910873      -1.32307958       4.61860856
C        4.26027267      -4.32646656       4.32200576
H        4.46701484      -3.81656895       5.26908696
C        3.61864087      -5.57749108       4.65123879
C        3.08980915      -6.60860191       4.92259481
C        2.31376054      -7.86652124       5.32043816
C        1.65700697      -8.79847287       5.69393916
C        0.82087047      -9.89943030       6.20504156
H       -0.03816866      -9.97377906       5.53010128
C        0.32882261      -9.66621732       7.63417132
C        1.19282768      -9.08729079       8.59087336
C        0.78152972      -8.86611516       9.90592764
C       -0.49854288      -9.23649057      10.29422644
C       -1.36618891      -9.83320763       9.38188974
C       -0.96464214     -10.06416751       8.05244192
C       -1.94463355     -10.71784295       7.11419338
N        1.56808451     -11.15224462       6.12530769
N        5.54121270      -4.58012018       3.66534726
H        1.17483659      -3.62845175       0.84284048
H        2.57931390      -5.04518121       2.25383608
H        2.59495156      -0.12993030       2.89047679
H        4.26843750      -0.23516050       4.49103937
H        5.32064736      -1.64516926       4.52227779
H        3.91509921      -1.54355731       5.62682179
H        2.20397981      -8.79250649       8.31396971
H        1.46658209      -8.40455055      10.61208856
H       -2.36369828     -10.12353725       9.70582323
H       -2.25163567     -10.01332478       6.33516085
H       -2.84838901     -11.04437153       7.64029551
H       -1.50190112     -11.60749222       6.65565230
H        0.98649571     -11.89639836       6.50515704
H        2.37174401     -11.08663131       6.74698480
H        5.36211757      -5.04985231       2.77993948
H        6.07570559      -5.23467749       4.23223714
C       -0.92906397      -9.00757848      11.64916218
C       -1.28962537      -8.81586461      12.78392086
Br      -1.87262267      -8.50587950      14.61872967
C       -0.00445707       0.01189536      -1.78238275
H       -0.66409135       0.67374010      -2.43557963
H        0.65740317      -0.63156657      -2.45157240
C       -0.90989263      -0.90692880      -0.91072765
C        0.90977584       0.90977584      -0.90977584
C       -0.00465871       1.77757030       0.00794375
H       -0.66225468       2.44313916      -0.64384735
H        0.64322798       2.43503045       0.67728295
C       -1.78241447       0.00034974      -0.00472694
H       -2.45427497      -0.65498947       0.64260836
H       -2.43311707       0.67328779      -0.65473579
C       -0.91132561       0.90220522       0.91563759
C       -0.01476271      -0.02253852       1.78660255
H       -0.67934791      -0.69751639       2.42135241
H        0.63392994       0.61504881       2.47327442
C        0.01484550      -1.77751727      -0.01636693
H        0.67870853      -2.42144646      -0.68295456
H       -0.62264859      -2.45592969       0.64226336
C        1.78714474       0.01002794       0.00389507
H        2.44202412       0.67113390       0.66197326
H        2.45385902      -0.65136977      -0.64189061
C        0.91606151      -0.90478549       0.90901405
