146
Properties=species:S:1:pos:R:3 pbc="F F F"
C        1.82707926       1.82707926      -1.82707926
H        2.18043278       1.16996841      -2.62754829
N        2.93110656       2.35996540      -1.03224634
C        2.40342965       3.59297999      -0.43792363
C        1.47161998       4.23485097      -1.49677617
C        1.04069320       3.01748335      -2.35939645
N        0.26618414       4.80541590      -0.83263413
C        2.14710072       5.38294077      -2.37537312
N        1.12209508       5.90653860      -3.32061970
C        3.41319400       4.94631564      -3.15419999
N        4.56743311       5.32813789      -2.33343439
C        4.18078095       6.58884523      -1.70600249
H        4.72347785       6.76314251      -0.77234712
C        2.67222458       6.55404705      -1.50169413
H        3.70151293       2.57700856      -1.66115158
H        1.84603757       3.32329948       0.46864302
H        3.21067664       4.24463318      -0.09680777
H       -0.04246691       2.84759230      -2.33598582
H        1.29247545       3.17636758      -3.41403713
H       -0.16762383       4.08663128      -0.24895495
H       -0.42484313       5.00095508      -1.55975726
H        1.54372453       6.62976842      -3.90745462
H        0.41564224       6.39857004      -2.76989850
H        3.48863956       5.47411258      -4.11374731
H        3.44159327       3.88301782      -3.40360616
H        4.72024427       4.63795692      -1.60036090
H        2.45155382       6.38140784      -0.44141068
H        2.19433402       7.50947408      -1.75167278
C        4.55379398       7.68007024      -2.56837669
C        4.86619239       8.59397118      -3.29061508
Br       5.37131421      10.07167172      -4.45841347
C       -1.82707926      -1.82707926      -1.82707926
H       -1.99603009      -2.73766783      -1.24425156
N       -1.13503262      -2.10480570      -3.08347998
C       -1.48887507      -0.98406711      -3.96139108
C       -2.95710327      -0.60969186      -3.63645199
C       -3.12617389      -1.11401240      -2.17738671
N       -3.11934603       0.87118520      -3.65607334
C       -4.04298590      -1.24320960      -4.61921912
N       -5.38866753      -0.77275565      -4.18783021
C       -4.02275494      -2.79018921      -4.70076549
N       -3.21428292      -3.14149350      -5.87322897
C       -3.51210932      -2.10531234      -6.85820701
H       -2.69850158      -1.98159981      -7.57886608
C       -3.81084355      -0.82174638      -6.09537583
H       -1.50065218      -2.97543701      -3.46358389
H       -0.80952898      -0.15032760      -3.74083746
H       -1.31060277      -1.23147265      -5.01004217
H       -3.36074823      -0.30369183      -1.47667114
H       -3.95998865      -1.82108141      -2.10181010
H       -2.41653008       1.29422121      -3.04565352
H       -4.01370930       1.09080787      -3.21296779
H       -6.10018041      -1.18648122      -4.79428594
H       -5.44038328       0.23072020      -4.37444770
H       -5.03333373      -3.19130411      -4.85186161
H       -3.64586811      -3.28161959      -3.80072954
H       -2.22335110      -3.09142766      -5.64378333
H       -2.95544090      -0.14050502      -6.17842642
H       -4.66557102      -0.27592709      -6.51398277
C       -4.65088139      -2.51039912      -7.64096040
C       -5.60460299      -2.84965929      -8.29651637
Br      -7.14669017      -3.39821430      -9.35649493
C       -1.82707926       1.82707926       1.82707926
H       -2.22575150       2.59500742       1.15719058
N       -1.01960834       2.40478818       2.89892179
C       -1.05438464       1.40659872       3.97334990
C       -2.47115139       0.77906758       3.95302814
C       -2.92680203       1.00508534       2.48568564
N       -2.38092166      -0.68584268       4.20915519
C       -3.49658296       1.40638408       5.00244758
N       -4.79291269       0.68480728       4.87153342
C       -3.72201957       2.93244933       4.85924074
N       -2.82504916       3.58454457       5.81941166
C       -2.80400766       2.69458774       6.97703327
H       -1.88727403       2.80886924       7.56282420
C       -2.99070929       1.27300776       6.46424871
H       -1.46698827       3.26564096       3.20704385
H       -0.28433791       0.65272770       3.76362843
H       -0.77272984       1.84736340       4.93202434
H       -3.12062356       0.06474435       1.95574329
H       -3.86857218       1.56428362       2.45002436
H       -1.71143397      -1.10029321       3.55682163
H       -3.28011166      -1.10056719       3.95632475
H       -5.46990457       1.08828047       5.52276253
H       -4.65036742      -0.27082496       5.20456832
H       -4.75335965       3.20562131       5.11751849
H       -3.56344915       3.31610815       3.84865995
H       -1.88225771       3.63816311       5.43814127
H       -2.03109840       0.74331661       6.49995733
H       -3.67485404       0.68859271       7.09203414
C       -3.87151157       3.05828620       7.87244314
C       -4.76554609       3.36288366       8.62234891
Br      -6.21112430       3.85539199       9.83488311
C        1.82707926      -1.82707926       1.82707926
H        1.70133724      -1.43550151       2.84111075
N        3.21341080      -1.73465291       1.37525459
C        3.33739401      -2.76173820       0.33520106
C        2.46098147      -3.95842540       0.78384024
C        1.41410394      -3.28848685       1.71498221
N        1.75644149      -4.54057192      -0.39277923
C        3.25456908      -5.13088632       1.51995922
N        2.28116986      -6.20453584       1.86354769
C        4.03228772      -4.69457890       2.78684302
N        5.41586850      -4.44444269       2.36869420
C        5.68479742      -5.44817463       1.34265662
H        6.47425061      -5.12847829       0.65623857
C        4.37208235      -5.73114275       0.62474066
H        3.82076844      -1.95787350       2.16103114
H        2.97345043      -2.33649447      -0.60925086
H        4.38377400      -3.01561373       0.15272986
H        0.38764561      -3.40615700       1.34730860
H        1.42601830      -3.74630764       2.71055422
H        1.25845908      -3.79721910      -0.88771579
H        1.02035954      -5.15559365      -0.04008397
H        2.76902275      -6.95614256       2.35578226
H        1.96659982      -6.62886570       0.98864527
H        4.04348033      -5.49425724       3.53876188
H        3.61044152      -3.82372071       3.29405502
H        5.49260967      -3.52209801       1.94385440
H        4.38455858      -5.25095680      -0.36114305
H        4.22362713      -6.80079578       0.43105798
C        6.19084478      -6.64155407       1.96984206
C        6.61465944      -7.64100936       2.49510986
Br       7.29993190      -9.25704402       3.34442347
C       -0.00445707       0.01189536      -1.78238275
H       -0.66409135       0.67374010      -2.43557963
H        0.65740317      -0.63156657      -2.45157240
C       -0.90989263      -0.90692880      -0.91072765
C        0.90977584       0.90977584      -0.90977584
C       -0.00465871       1.77757030       0.00794375
H       -0.66225468       2.44313916      -0.64384735
H        0.64322798       2.43503045       0.67728295
C       -1.78241447       0.00034974      -0.00472694
H       -2.45427497      -0.65498947       0.64260836
H       -2.43311707       0.67328779      -0.65473579
C       -0.91132561       0.90220522       0.91563759
C       -0.01476271      -0.02253852       1.78660255
H       -0.67934791      -0.69751639       2.42135241
H        0.63392994       0.61504881       2.47327442
C        0.01484550      -1.77751727      -0.01636693
H        0.67870853      -2.42144646      -0.68295456
H       -0.62264859      -2.45592969       0.64226336
C        1.78714474       0.01002794       0.00389507
H        2.44202412       0.67113390       0.66197326
H        2.45385902      -0.65136977      -0.64189061
C        0.91606151      -0.90478549       0.90901405
