154
Properties=species:S:1:pos:R:3 pbc="F F F"
C        1.82880849       1.82880849      -1.82880849
H        2.84752775       1.46760936      -1.66084035
N        1.67111688       3.22532803      -1.42990184
C        0.51192235       3.70278264      -2.20931942
C        0.60376089       2.99615035      -3.58085500
C        1.40553140       1.71572628      -3.28769109
N       -0.71591906       2.70311071      -4.13826140
C        1.32402265       3.84533554      -4.55258517
C        1.87933865       4.52804452      -5.37068742
C        2.54585679       5.38310121      -6.45216942
C        3.02955916       6.03683398      -7.33668212
C        3.58763192       6.82107201      -8.45897066
N        2.51427287       7.04308282      -9.42436622
C        4.80949395       6.10842786      -9.06858767
N        5.93725954       6.43380250      -8.17329410
C        5.66885653       7.79369416      -7.69851838
H        5.93423979       7.90531013      -6.64284861
C        4.20158020       8.13242870      -7.96203603
Br       6.83615078       9.02561255      -8.66018564
H        2.49253119       3.74088972      -1.74818284
H       -0.40548458       3.42486413      -1.67514628
H        0.51831526       4.79642109      -2.28295625
H        0.82779200       0.80519056      -3.48815334
H        2.29886885       1.65989674      -3.92406096
H       -1.23054426       2.09527828      -3.50150538
H       -0.60998286       2.18001702      -5.00661327
H        2.85922338       7.59843884     -10.20607040
H        1.77483936       7.59353219      -8.98918916
H        5.03779312       6.49557096     -10.06979771
H        4.68002434       5.02355177      -9.15407516
H        5.88610794       5.80613223      -7.36963608
H        3.71235894       8.49764856      -7.05058256
H        4.09666493       8.92049820      -8.71870438
C       -1.82880849      -1.82880849      -1.82880849
H       -2.72408667      -1.23057397      -2.02131682
N       -2.14074972      -3.06685477      -1.11874226
C       -1.01666947      -3.96866671      -1.43868824
C       -0.62506186      -3.65510170      -2.90060268
C       -1.09479849      -2.20459998      -3.10955030
N        0.81109981      -3.80649924      -3.13005362
C       -1.32739641      -4.56434475      -3.83020220
C       -1.86200104      -5.31025542      -4.60581413
C       -2.49240922      -6.26587250      -5.62284570
C       -2.93797659      -7.01746178      -6.44763689
C       -3.43881202      -7.94024380      -7.48861876
N       -2.28755867      -8.63413089      -8.06003235
C       -4.26732424      -7.17880013      -8.54038511
N       -5.60262623      -7.00689574      -7.93483418
C       -5.81653189      -8.21325583      -7.13128134
H       -6.31725757      -7.97789594      -6.18724501
C       -4.47358286      -8.91012890      -6.91233316
Br      -7.04433775      -9.38584247      -8.09176873
H       -2.98511496      -3.46513359      -1.53135520
H       -0.19139888      -3.75564417      -0.74748278
H       -1.30214619      -5.01507852      -1.28046789
H       -0.26426151      -1.52391063      -3.33296376
H       -1.78603828      -2.13653799      -3.96025028
H        1.32526761      -3.17133753      -2.52016948
H        1.03453231      -3.52680308      -4.08437665
H       -2.59772991      -9.29460836      -8.77139436
H       -1.83218758      -9.18908222      -7.33629091
H       -4.37650430      -7.76480842      -9.46184908
H       -3.83519026      -6.20932026      -8.81314074
H       -5.55369311      -6.21097046      -7.29721268
H       -4.30323202      -9.11013064      -5.84722739
H       -4.42892822      -9.87684177      -7.43009752
C       -1.82880849       1.82880849       1.82880849
H       -1.20287401       2.68864278       2.08446068
N       -2.23561619       1.07712621       3.01360435
C       -3.46061100       0.36657935       2.59683407
C       -4.20585100       1.32978120       1.64513405
C       -3.09382352       2.23261749       1.08250776
N       -4.92130185       0.61536221       0.58878900
C       -5.19453458       2.13376505       2.39364373
C       -6.02676095       2.77881619       2.97249345
C       -7.12436051       3.59090013       3.66586678
C       -8.01852437       4.21890089       4.16564999
C       -9.14793981       4.98413714       4.73559764
N      -10.37332287       4.51296726       4.09543178
C       -8.92235478       6.49831513       4.56583958
N       -8.00569552       6.88065513       5.65800549
C       -8.36652501       6.01264971       6.78189435
H       -7.47825714       5.67793743       7.32620396
C       -9.19677323       4.84036281       6.25890888
Br      -9.39763305       7.05942456       8.06489136
H       -2.49650889       1.74569704       3.73939783
H       -3.16930160      -0.55886434       2.08408857
H       -4.05452371       0.07305422       3.47011467
H       -2.98826478       2.13799731      -0.00512619
H       -3.31242083       3.29065639       1.27974933
H       -4.26132488       0.06944167       0.03547286
H       -5.34141122       1.28737612      -0.05213992
H      -11.17785335       5.00746363       4.47841565
H      -10.51414299       3.52768850       4.31572922
H       -9.85936587       7.05662597       4.68716995
H       -8.50030132       6.76664864       3.59070131
H       -7.05787242       6.63735892       5.36664492
H       -8.78148358       3.88270686       6.59639962
H      -10.23259851       4.88414196       6.61912704
C        1.82880849      -1.82880849       1.82880849
H        1.17932641      -2.64926451       2.14738655
N        2.31761353      -1.04684682       2.96188640
C        3.55186173      -0.40812826       2.46403443
C        4.21433852      -1.44155559       1.52487214
C        3.04231883      -2.31787996       1.04874999
N        4.91235183      -0.80346075       0.40964046
C        5.20027864      -2.25586896       2.26579576
C        6.02929121      -2.91180356       2.83697582
C        7.12121863      -3.74122677       3.51868202
C        8.00933253      -4.38612203       4.00762069
C        9.12960787      -5.17530053       4.56276618
N       10.34458035      -4.78483928       3.85230228
C        8.83404498      -6.68400533       4.46845917
N        7.95056299      -6.98039387       5.61339928
C        8.39566899      -6.08285770       6.68254237
H        7.54657636      -5.68752483       7.24829734
C        9.25048857      -4.97051283       6.07504352
Br       9.43706374      -7.11912153       7.96576369
H        2.58172933      -1.69533215       3.70454227
H        3.27732632       0.50695199       1.92415150
H        4.19483821      -0.10458365       3.29827074
H        2.89365660      -2.26411016      -0.03663087
H        3.22505440      -3.37528777       1.28248438
H        4.25226019      -0.25289490      -0.13891569
H        5.27590053      -1.51917492      -0.21842803
H       11.14370688      -5.29744012       4.22258562
H       10.53571580      -3.79829182       4.02355309
H        9.75139381      -7.27694731       4.57482067
H        8.35924163      -6.97410613       3.52430350
H        7.00192817      -6.70850266       5.35144543
H        8.89046087      -3.98251103       6.38761815
H       10.29825962      -5.04420428       6.39340361
C       -0.00445707       0.01189536      -1.78238275
H       -0.66409135       0.67374010      -2.43557963
H        0.65740317      -0.63156657      -2.45157240
C       -0.90989263      -0.90692880      -0.91072765
C        0.90977584       0.90977584      -0.90977584
C       -0.00465871       1.77757030       0.00794375
H       -0.66225468       2.44313916      -0.64384735
H        0.64322798       2.43503045       0.67728295
C       -1.78241447       0.00034974      -0.00472694
H       -2.45427497      -0.65498947       0.64260836
H       -2.43311707       0.67328779      -0.65473579
C       -0.91132561       0.90220522       0.91563759
C       -0.01476271      -0.02253852       1.78660255
H       -0.67934791      -0.69751639       2.42135241
H        0.63392994       0.61504881       2.47327442
C        0.01484550      -1.77751727      -0.01636693
H        0.67870853      -2.42144646      -0.68295456
H       -0.62264859      -2.45592969       0.64226336
C        1.78714474       0.01002794       0.00389507
H        2.44202412       0.67113390       0.66197326
H        2.45385902      -0.65136977      -0.64189061
C        0.91606151      -0.90478549       0.90901405
