130
Properties=species:S:1:pos:R:3 pbc="F F F"
C        1.83213278       1.83213278      -1.83213278
C        2.31076140       3.04815020      -1.03890970
C        3.68909799       2.67424887      -0.49028470
C        4.00920026       1.23828162      -1.04242907
C        3.08528676       1.06671179      -2.24306237
C        5.48216610       1.72152204      -1.11821856
C        6.59580533       1.74629105      -2.14378709
C        7.23214982       3.13084303      -1.87796290
C        6.18127849       3.93946064      -1.07817515
C        4.91606094       3.14570172      -1.33932349
H        1.20054845       2.10358364      -2.68182655
H        1.62747567       3.32475491      -0.22867201
H        2.39336070       3.91932939      -1.69968447
H        3.81255959       2.79567129       0.59180245
H        3.85633779       0.44477485      -0.29975519
H        3.51764305       1.51805390      -3.14318681
H        2.90144905       0.00977565      -2.46276387
H        5.94248025       1.56265904      -0.12586621
H        7.28542041       0.90477581      -2.02892103
H        6.18780547       1.71089759      -3.16131810
H        7.52004098       3.62245284      -2.81143720
H        6.39952175       3.99156558      -0.00551104
H        6.10106500       4.96406347      -1.45507855
H        4.60672572       3.36457336      -2.37607417
C        8.44085063       2.99748477      -1.10669256
C        9.45313755       2.88579724      -0.46075365
Br      11.08991989       2.70520793       0.58367494
C       -1.83213278      -1.83213278      -1.83213278
C       -1.48350266      -1.61036322      -3.30395542
C       -0.48017482      -2.70694360      -3.66651313
C       -0.31359864      -3.59527556      -2.38103676
C       -1.55174063      -3.30240487      -1.54091543
C       -0.17009795      -4.78768727      -3.36412148
C       -0.77821858      -6.16245777      -3.54520712
C       -0.91629199      -6.24082912      -5.08383464
C       -0.81714774      -4.78360765      -5.59815890
C       -1.07808974      -3.99051598      -4.33248042
H       -2.85680328      -1.53771938      -1.59143599
H       -1.06614092      -0.61643064      -3.49833103
H       -2.38405636      -1.70611172      -3.92220648
H        0.45613268      -2.35692342      -4.11563771
H        0.60926939      -3.38450586      -1.82563135
H       -2.40245505      -3.91353602      -1.86289270
H       -1.37906383      -3.51439663      -0.48052811
H        0.88909373      -4.84497866      -3.67512057
H       -0.15911047      -6.95163109      -3.10837570
H       -1.76893385      -6.21378480      -3.07730250
H       -1.85137500      -6.72723644      -5.37531958
H        0.16388374      -4.53937814      -6.02110397
H       -1.57289727      -4.58304478      -6.36426497
H       -2.15886823      -4.06700437      -4.12150065
C        0.14194874      -7.03551591      -5.65146079
C        1.02822536      -7.70106610      -6.12684769
Br       2.46125969      -8.77720447      -6.89550809
C       -1.83213278       1.83213278       1.83213278
C       -1.98541847       3.21457520       1.19782763
C       -3.28892885       3.16633554       0.39836718
C       -3.90465596       1.74154807       0.64370692
C       -3.23511082       1.24114405       1.91880605
C       -5.28245866       2.45372197       0.58572608
C       -6.53966418       2.51921980       1.42699950
C       -6.91242559       4.01605453       1.31247564
C       -5.63363241       4.74044843       0.82483345
C       -4.56122613       3.71221009       1.12764993
H       -1.32275168       1.86461699       2.79858997
H       -1.14052070       3.48508562       0.55529627
H       -2.05217317       3.98130762       1.97889378
H       -3.20614610       3.46346604      -0.65318370
H       -3.74408944       1.05039345      -0.19361507
H       -3.74484146       1.62384307       2.81019924
H       -3.24762552       0.14777818       1.97858487
H       -5.58411163       2.52238442      -0.47549055
H       -7.31454604       1.83414928       1.07042194
H       -6.32160333       2.26657174       2.47184608
H       -7.28123867       4.40837974       2.26431261
H       -5.65491744       4.98490287      -0.24322194
H       -5.47075628       5.67014162       1.37930913
H       -4.40554702       3.72141635       2.22040989
C       -7.97745270       4.20557315       0.36200211
C       -8.86941291       4.36429500      -0.43401948
Br     -10.31163712       4.62093481      -1.72111906
C        1.83213278      -1.83213278       1.83213278
C        2.17810931      -1.09422160       3.12549039
C        1.14515407      -1.55103220       4.15744529
C        0.24039896      -2.61390496       3.43560703
C        1.06641440      -3.08487094       2.24377558
C        0.18128758      -3.32852421       4.81209491
C        0.40765973      -4.72405621       5.35416753
C        1.12334248      -4.42515038       6.69246289
C        1.64314368      -2.97043980       6.58533081
C        1.58195593      -2.72954420       5.08958601
H        2.71218007      -2.05152199       1.22225658
H        2.16428335      -0.00483948       3.01177976
H        3.18666072      -1.36890241       3.45681144
H        0.60291326      -0.74652278       4.66699241
H       -0.73087203      -2.21248262       3.11925723
H        1.77108682      -3.87144782       2.53634913
H        0.43234295      -3.49230626       1.44933936
H       -0.63561397      -2.86873208       5.39788739
H       -0.52532966      -5.28576703       5.45867989
H        1.07199490      -5.29445602       4.69357023
H        1.92380572      -5.14489766       6.88522765
H        1.02225638      -2.24766768       7.12667430
H        2.66578641      -2.88748559       6.96693503
H        2.42104783      -3.28743559       4.63888983
C        0.20750671      -4.53974738       7.79777387
C       -0.55950576      -4.63572237       8.72347181
Br      -1.79970004      -4.79090582      10.22024709
C       -0.00445707       0.01189536      -1.78238275
H       -0.66409135       0.67374010      -2.43557963
H        0.65740317      -0.63156657      -2.45157240
C       -0.90989263      -0.90692880      -0.91072765
C        0.90977584       0.90977584      -0.90977584
C       -0.00465871       1.77757030       0.00794375
H       -0.66225468       2.44313916      -0.64384735
H        0.64322798       2.43503045       0.67728295
C       -1.78241447       0.00034974      -0.00472694
H       -2.45427497      -0.65498947       0.64260836
H       -2.43311707       0.67328779      -0.65473579
C       -0.91132561       0.90220522       0.91563759
C       -0.01476271      -0.02253852       1.78660255
H       -0.67934791      -0.69751639       2.42135241
H        0.63392994       0.61504881       2.47327442
C        0.01484550      -1.77751727      -0.01636693
H        0.67870853      -2.42144646      -0.68295456
H       -0.62264859      -2.45592969       0.64226336
C        1.78714474       0.01002794       0.00389507
H        2.44202412       0.67113390       0.66197326
H        2.45385902      -0.65136977      -0.64189061
C        0.91606151      -0.90478549       0.90901405
