53
Properties=species:S:1:pos:R:3 pbc="F F F"
C        0.00000000       0.00000000       0.00000000
C        0.90526295       0.90526295      -0.90526295
S        0.91632798       2.58802946      -0.30337680
C        2.56010367       2.86767810      -0.97353062
C        3.21537922       1.49106919      -0.89539603
N        2.25899344       0.39036434      -0.89016712
H        0.48165836       0.87750338      -1.91371137
H        2.45752537       3.24441641      -1.99560609
H        3.09882829       3.60909821      -0.37667798
H        3.86470082       1.41734109      -0.01596646
H        2.41259849      -0.20430850      -1.69958868
C        4.08568680       1.29814450      -2.02630044
C        4.81456940       1.13657008      -2.97343288
Br       5.99311091       0.87531790      -4.50486594
C       -0.90526295      -0.90526295      -0.90526295
S       -1.04655778      -2.54726300      -0.21391347
C       -2.66465162      -2.77491332      -0.96174745
C       -3.24247851      -1.36232229      -0.99704364
N       -2.22573417      -0.31710313      -0.99668760
H       -0.42625478      -0.95909635      -1.88752198
H       -2.52830743      -3.21519560      -1.95404483
H       -3.27719616      -3.44999314      -0.35741518
H       -3.93356122      -1.20244529      -0.16200186
H       -2.30018878       0.23725383      -1.84494372
C       -4.03702504      -1.18784819      -2.18525852
C       -4.70245776      -1.04172612      -3.18038848
Br      -5.77840618      -0.80545911      -4.78942946
C       -0.90526295       0.90526295       0.90526295
S       -1.96110572      -0.09615542       1.94278394
C       -2.01447765       1.18218282       3.20465192
C       -0.65969718       1.87271137       3.06943589
N       -0.06281734       1.73000422       1.74670334
H       -1.51867247       1.51714804       0.23705261
H       -2.86250541       1.84073815       2.99430431
H       -2.14856676       0.74006636       4.19597135
H        0.04096768       1.50952852       3.82944754
H        0.06026281       2.64523264       1.32290884
C       -0.80079795       3.28247089       3.32686290
C       -0.91896985       4.46314449       3.54245803
Br      -1.11004381       6.37219384       3.89105711
C        0.90526295      -0.90526295       0.90526295
S        2.11849545       0.08134068       1.77057947
C        2.17846623      -1.09566218       3.12718397
C        0.76783987      -1.67865726       3.15534731
N        0.07507486      -1.58906446       1.87538558
H        1.41143701      -1.61616373       0.24527237
H        2.95247739      -1.83721161       2.90785887
H        2.42887229      -0.59107721       4.06465498
H        0.16345602      -1.20043834       3.93411402
H       -0.15340408      -2.52076049       1.54052226
C        0.82068005      -3.07116748       3.51828422
C        0.86493369      -4.23739479       3.82224388
Br       0.93648810      -6.12308571       4.31372094
