85
Properties=species:S:1:pos:R:3 pbc="F F F"
C        0.00000000       0.00000000       0.00000000
C        0.90550021       0.90550021      -0.90550021
H        0.24844285       1.43977277      -1.59834271
S        1.82668956       2.07701801       0.09427594
C        3.40972880       1.64067259      -0.66288516
C        3.02253491       0.89179015      -1.94485006
H        2.71432258       1.63093790      -2.70045139
N        1.85541899       0.05837709      -1.60998953
C        4.16498911       0.04528357      -2.56882118
H        3.77309464      -0.35147945      -3.51831798
C        4.62520329      -1.13677314      -1.70665552
S        6.21690647      -1.60419501      -2.43094610
C        6.37003867      -0.07958916      -3.36891679
H        6.27486232      -0.26477108      -4.44253775
N        5.36013995       0.85603294      -2.88829640
Br       8.11000404       0.70859494      -3.05944548
H        3.98772217       2.54423732      -0.87630614
H        3.96670341       1.02286913       0.04538235
H        1.40874621      -0.31225121      -2.44596383
H        3.92688882      -1.97709659      -1.75331458
H        4.79312066      -0.86896701      -0.66089510
H        5.75093837       1.24093967      -2.02808473
C       -0.90550021      -0.90550021      -0.90550021
H       -0.40939438      -1.87603423      -1.00112972
S       -2.52758030      -1.11497887      -0.16687244
C       -3.39533591      -0.63805295      -1.67989768
C       -2.33021757      -0.75038704      -2.77857051
H       -2.20070931      -1.81430853      -3.03069403
N       -1.07077361      -0.25623188      -2.19678012
C       -2.67891799      -0.00488569      -4.09529019
H       -1.87881911      -0.25010276      -4.81101130
C       -2.75432362       1.52119456      -3.96195662
S       -3.62431648       2.04207905      -5.46142014
C       -4.19547698       0.38287934      -5.84676865
H       -3.70362785      -0.00635753      -6.74264361
N       -3.95530323      -0.46451555      -4.68465052
Br      -6.10065006       0.40731591      -6.18471030
H       -4.23925026      -1.31027041      -1.85874496
H       -3.77365436       0.37845208      -1.54898791
H       -0.27234409      -0.48531626      -2.78479848
H       -1.76272138       1.98054823      -3.92093366
H       -3.33721742       1.85099141      -3.09882274
H       -4.72181564      -0.25252753      -4.04561961
C       -0.90550021       0.90550021       0.90550021
H       -1.90074235       0.93405573       0.45176026
S       -1.00702556       0.23526003       2.56714603
C       -0.56326548       1.80727123       3.34274983
C       -0.77479600       2.84852624       2.23585288
H       -1.85412946       3.04628160       2.14530080
N       -0.31086895       2.23095715       0.98195951
C       -0.07709835       4.21230812       2.48968740
H       -0.39134040       4.87791127       1.67068148
C        1.45540652       4.15129100       2.49920121
S        1.94376999       5.71184716       3.27558040
C        0.29560197       6.04875681       3.90621145
H       -0.15698727       6.90215526       3.39348646
N       -0.50616848       4.83977680       3.75852402
Br       0.38961053       6.47661249       5.79104250
H       -1.20459172       1.99523000       4.20844391
H        0.47422213       1.74003793       3.67837439
H       -0.60293624       2.76992996       0.16959263
H        1.87121368       4.08437141       1.48994908
H        1.85122886       3.33217529       3.10410233
H       -0.23019658       4.24763206       4.54213414
C        0.90550021      -0.90550021       0.90550021
H        1.94523048      -0.61650181       0.72482603
S        0.49621671      -0.67559804       2.63761687
C        0.32205999      -2.44955513       2.94167143
C        1.01060101      -3.10904937       1.73952475
H        2.10003663      -3.05590604       1.88976919
N        0.66628435      -2.29807860       0.55942267
C        0.64803604      -4.60389516       1.52716267
H        1.27988598      -4.96100543       0.69904176
C       -0.81874686      -4.85678038       1.15705216
S       -1.03816627      -6.62907142       1.45275241
C        0.47973590      -6.77732220       2.40230820
H        1.22879281      -7.36243021       1.86140598
N        0.95891195      -5.43505332       2.71050403
Br       0.12109383      -7.68220357       4.07474706
H        0.80248709      -2.71943253       3.88634601
H       -0.74374854      -2.68030604       3.00763269
H        1.24348931      -2.54158923      -0.24261970
H       -1.02612256      -4.61935924       0.10987013
H       -1.52389912      -4.31621898       1.79272889
H        0.38913159      -5.13067759       3.50015361
