106
Properties=species:S:1:pos:R:3 pbc="F F F"
C        1.81540423       1.81540423      -1.81540423
H        1.15834687       2.34967680      -2.50824674
S        2.73659358       2.98692203      -0.81562808
C        4.31963282       2.55057661      -1.57278918
C        3.93243893       1.80169418      -2.85475408
H        3.62422661       2.54084192      -3.61035541
N        2.76532302       0.96828112      -2.51989355
C        5.07489314       0.95518760      -3.47872521
H        4.68299866       0.55842457      -4.42822200
C        5.53510732      -0.22686911      -2.61655955
S        7.12681050      -0.69429099      -3.34085012
C        7.27994269       0.83031487      -4.27882081
H        7.18476635       0.64513294      -5.35244177
N        6.27004398       1.76593697      -3.79820043
Br       9.01990807       1.61849897      -3.96934950
H        4.89762620       3.45414135      -1.78621016
H        4.87660743       1.93277316      -0.86452167
H        2.31865023       0.59765282      -3.35586786
H        4.83679284      -1.06719257      -2.66321861
H        5.70302469       0.04093702      -1.57079912
H        6.66084240       2.15084369      -2.93798876
C       -1.81540423      -1.81540423      -1.81540423
H       -1.27004554      -2.74574449      -2.00048038
S       -3.37304421      -2.16887250      -0.99722698
C       -4.36016455      -1.65896923      -2.42386484
C       -3.36100804      -1.63975698      -3.58812218
H       -3.18518231      -2.67684351      -3.91339812
N       -2.09891023      -1.10294251      -3.05164495
C       -3.83451160      -0.84138097      -4.83291337
H       -3.06766078      -0.99363199      -5.60835246
C       -3.99102507       0.66652415      -4.60029683
S       -4.98211140       1.21928690      -6.01054514
C       -5.47769927      -0.44682547      -6.46455362
H       -5.02075026      -0.75123225      -7.41035855
N       -5.11599085      -1.34441079      -5.37377973
Br      -7.39839857      -0.52163719      -6.68772077
H       -5.17262277      -2.37091785      -2.59443709
H       -4.78866851      -0.67754275      -2.20769100
H       -1.32669283      -1.24673204      -3.69874603
H       -3.02752002       1.18372292      -4.58902178
H       -4.53723424       0.90794683      -3.68547342
H       -5.85221673      -1.21865952      -4.67879860
C       -1.81540423       1.81540423       1.81540423
H       -2.83689436       1.75072307       1.42865297
S       -1.76689999       1.25324801       3.51899569
C       -1.38181887       2.89861618       4.16256356
C       -1.73206211       3.84777782       3.00904726
H       -2.82579665       3.97068456       2.97894273
N       -1.30752859       3.17779199       1.76817710
C       -1.11296953       5.26672995       3.12910645
H       -1.52213446       5.85471094       2.29279984
C        0.41772641       5.30305632       3.03946785
S        0.84803988       6.93987720       3.68153232
C       -0.77607600       7.21399717       4.39900520
H       -1.31634138       8.00084511       3.86515457
N       -1.50251875       5.94977087       4.38189175
Br      -0.59259118       7.77257341       6.24259194
H       -1.97856821       3.10357265       5.05583684
H       -0.32309768       2.91950755       4.43129704
H       -1.68568820       3.64152180       0.94496090
H        0.77274835       5.19478844       2.01077880
H        0.90496378       4.55296534       3.66675926
H       -1.13862392       5.43015010       5.18090083
C        1.81540423      -1.81540423       1.81540423
H        2.85284923      -1.50527526       1.65814592
S        1.37215114      -1.62323796       3.54375459
C        1.22408124      -3.40503800       3.81387938
C        1.94489716      -4.03117482       2.61281522
H        3.03045594      -3.96180671       2.78316130
N        1.60683896      -3.20559721       1.44106152
C        1.61250648      -5.52810274       2.36819672
H        2.26482610      -5.85953197       1.54528717
C        0.15705376      -5.79981527       1.96792872
S       -0.03614951      -7.58058727       2.22893188
C        1.46743747      -7.71922732       3.20241357
H        2.23597098      -8.28162070       2.66474938
N        1.91743426      -6.37449865       3.54224847
Br       1.09587155      -8.65956582       4.85231916
H        1.69274183      -3.68317276       4.76206310
H        0.16152734      -3.65536515       3.85700978
H        2.20207330      -3.42486944       0.64522817
H       -0.03628861      -5.54758267       0.92152482
H       -0.56844594      -5.28286605       2.60034071
H        1.32876302      -6.09403249       4.32687935
C       -0.00445707       0.01189536      -1.78238275
H       -0.66409135       0.67374010      -2.43557963
H        0.65740317      -0.63156657      -2.45157240
C       -0.90989263      -0.90692880      -0.91072765
C        0.90977584       0.90977584      -0.90977584
C       -0.00465871       1.77757030       0.00794375
H       -0.66225468       2.44313916      -0.64384735
H        0.64322798       2.43503045       0.67728295
C       -1.78241447       0.00034974      -0.00472694
H       -2.45427497      -0.65498947       0.64260836
H       -2.43311707       0.67328779      -0.65473579
C       -0.91132561       0.90220522       0.91563759
C       -0.01476271      -0.02253852       1.78660255
H       -0.67934791      -0.69751639       2.42135241
H        0.63392994       0.61504881       2.47327442
C        0.01484550      -1.77751727      -0.01636693
H        0.67870853      -2.42144646      -0.68295456
H       -0.62264859      -2.45592969       0.64226336
C        1.78714474       0.01002794       0.00389507
H        2.44202412       0.67113390       0.66197326
H        2.45385902      -0.65136977      -0.64189061
C        0.91606151      -0.90478549       0.90901405
