109
Properties=species:S:1:pos:R:3 pbc="F F F"
C        0.00000000       0.00000000       0.00000000
C        0.90513379       0.90513379      -0.90513379
H        0.24292704       1.60319759      -1.42629585
S        2.08230260       1.81401941       0.08080292
C        3.24758844       1.88107727      -1.29055975
C        2.94013802       0.64126476      -2.14616834
H        2.96236238       0.94099209      -3.20237611
N        1.62918583       0.07060682      -1.83528636
C        3.95788452      -0.40616827      -1.94965538
C        4.78100931      -1.26371346      -1.78343431
C        5.82337536      -2.36614001      -1.58603810
C        6.63567928      -3.24400716      -1.47442052
C        7.62424981      -4.33459833      -1.40886848
H        8.23904795      -4.26263444      -2.31544096
C        6.96962227      -5.71633110      -1.37964302
S        6.67232412      -6.04554856       0.36984667
C        7.94121506      -4.89629561       0.89639633
H        8.72117258      -5.42084816       1.45516730
N        8.51606178      -4.21006388      -0.24907540
H        3.03441875       2.79417395      -1.85692010
H        4.27805180       1.92751054      -0.92539970
H        1.08091579      -0.10987596      -2.66910096
H        7.65699087      -6.48111102      -1.75602135
H        6.03628913      -5.76796130      -1.94821516
H        8.63405823      -3.22931671      -0.00348449
C        7.39005793      -3.92333533       1.80368576
C        6.92846384      -3.10848109       2.56354066
Br       6.18210523      -1.79093072       3.79216177
C       -0.90513379      -0.90513379      -0.90513379
H       -0.29255912      -1.75279776      -1.22706359
S       -2.32213838      -1.49694365       0.00356294
C       -3.29710582      -1.61630712      -1.50581252
C       -2.70026099      -0.56815047      -2.45915966
H       -2.63008503      -1.01650772      -3.45913783
N       -1.37026173      -0.13196831      -2.03284899
C       -3.56732412       0.61962482      -2.55367231
C       -4.26797162       1.59155607      -2.62431461
C       -5.15108917       2.83655985      -2.72874413
C       -5.83103673       3.81887654      -2.85393246
C       -6.64612516       5.02567103      -3.07806582
H       -7.14228534       4.89955193      -4.04912106
C       -5.80224157       6.29990706      -3.13059968
S       -5.68804000       6.84490600      -1.41379490
C       -7.17135762       5.96086143      -0.93802694
H       -7.93008971       6.65926271      -0.57433012
N       -7.68898804       5.19178405      -2.05786932
H       -3.15093630      -2.62342439      -1.91115211
H       -4.36146231      -1.47411114      -1.29538860
H       -0.69801591      -0.15021500      -2.79190990
H       -6.31343667       7.08247649      -3.70094101
H       -4.80601782       6.14505747      -3.55558264
H       -7.98258681       4.28218468      -1.70782388
C       -6.89339692       5.07094309       0.15941699
C       -6.66060483       4.32563647       1.07852628
Br      -6.28419972       3.12053871       2.56464828
C       -0.90513379       0.90513379       0.90513379
H       -1.18225255       0.30974260       1.78042532
S       -0.02343983       2.36651686       1.42556240
C       -1.55806066       3.29886007       1.56230473
C       -2.52353911       2.64136927       0.56266274
H       -3.50691495       2.55507980       1.04373583
N       -2.06948954       1.31190813       0.15368136
C       -2.68060271       3.46792900      -0.64716009
C       -2.80216074       4.13564317      -1.63707375
C       -2.97135198       4.97616847      -2.90424701
C       -3.14707539       5.62123857      -3.90222132
C       -3.43259840       6.39138190      -5.12546035
H       -4.41434427       6.86177261      -4.98426241
C       -3.49724378       5.50717434      -6.37148392
S       -1.79489889       5.42782931      -6.96579931
C       -1.33899328       6.95150310      -6.14197325
H       -1.02018966       7.69880260      -6.87383513
N       -2.45070705       7.45881411      -5.35444786
H       -1.92818310       3.17187534       2.58545436
H       -1.38513244       4.36414214       1.38168747
H       -2.80643650       0.61801674       0.21568757
H       -4.10645858       5.97645216      -7.15100955
H       -3.88626357       4.50389793      -6.17361850
H       -2.08272785       7.79089055      -4.46539239
C       -0.20717413       6.73443239      -5.27856968
C        0.74072441       6.55263568      -4.55546919
Br       2.27339618       6.25868577      -3.38627686
C        0.90513379      -0.90513379       0.90513379
H        1.16710751      -0.31602068       1.78929229
S        0.03331867      -2.38076821       1.40143220
C        1.57601886      -3.29871969       1.54448691
C        2.54482748      -2.62107934       0.56166429
H        3.52228305      -2.52970878       1.05373876
N        2.08126399      -1.29217691       0.16163812
C        2.72280466      -3.43343321      -0.65486625
C        2.86138660      -4.08959581      -1.65025225
C        3.05222155      -4.91519658      -2.92414468
C        3.24481147      -5.54807977      -3.92679860
C        3.55078838      -6.30256967      -5.15483809
H        4.53584946      -6.76432238      -5.00831737
C        3.61903656      -5.40490889      -6.39101126
S        1.92213428      -5.33685022      -7.00205561
C        1.47360127      -6.87354818      -6.19862633
H        1.17004996      -7.61646339      -6.94135623
N        2.58238302      -7.37757073      -5.40488046
H        1.93431687      -3.17854054       2.57265539
H        1.41597369      -4.36379118       1.35119718
H        2.81032275      -0.59145741       0.23836064
H        4.24101826      -5.85984053      -7.16895760
H        3.99561509      -4.39980313      -6.17887522
H        2.20877715      -7.72257210      -4.52312324
C        0.33082012      -6.67701329      -5.34479656
C       -0.62625910      -6.51241531      -4.62971413
Br      -2.17377524      -6.24627430      -3.47348632
