66
Properties=species:S:1:pos:R:3 pbc="F F F"
Cl       1.41644875       3.26604907      -5.48643730
C        2.07646748       2.91824478      -3.92879001
C        1.31821190       2.11515352      -3.07181815
C        1.79665043       1.79665043      -1.79665043
C        3.03923895       2.28347362      -1.37617081
Cl       3.69936898       1.93574736       0.18144148
C        3.79782630       3.08670202      -2.23310767
C        3.31900351       3.40506872      -3.50837854
Br       4.41550270       4.50141522      -4.60456737
H        0.35189385       1.73801023      -3.40201702
H        4.76378470       3.46369912      -1.90303836
Cl      -5.59415263      -2.99996993      -1.57481255
C       -3.97780889      -2.79715802      -2.14853537
C       -3.11823818      -2.00048645      -1.38645894
C       -1.79665043      -1.79665043      -1.79665043
C       -1.33216368      -2.39218034      -2.97453936
Cl       0.28414634      -2.18944960      -3.54837160
C       -2.19167477      -3.18904985      -3.73691136
C       -3.51339263      -3.39268288      -3.32637526
Br      -4.60956704      -4.48906501      -4.42285324
H       -3.48273678      -1.53861574      -0.47056858
H       -1.82731394      -3.65075407      -4.65245416
Cl      -1.55984994       3.02331423       5.58577094
C       -2.14173232       2.80777197       3.97399799
C       -1.37999709       2.01056807       3.11461841
C       -1.79665043       1.79665043       1.79665043
C       -2.98064194       2.38265925       1.33558219
Cl      -3.56263285       2.16719955      -0.27615754
C       -3.74269763       3.18002226       2.19491609
C       -3.32567568       3.39377435       3.51300074
Br      -4.42216461       4.49013940       4.60918128
H       -0.45936175       1.55610037       3.47645899
H       -4.66299109       3.63431462       1.83321647
Cl       5.59270842      -3.00403407       1.57219263
C        3.97715159      -2.79900768       2.14734300
C        3.11761595      -2.00223753       1.38533010
C        1.79665043      -1.79665043       1.79665043
C        1.33275382      -2.39051966       2.97560990
Cl      -0.28276925      -2.18557437       3.55086975
C        2.19222995      -3.18748739       3.73791864
C        3.51332544      -3.39287198       3.32625335
Br       4.60949994      -4.48925381       4.42273154
H        3.48165446      -1.54166148       0.46860517
H        1.82832904      -3.64789744       4.65429570
C       -0.00445707       0.01189536      -1.78238275
H       -0.66409135       0.67374010      -2.43557963
H        0.65740317      -0.63156657      -2.45157240
C       -0.90989263      -0.90692880      -0.91072765
C        0.90977584       0.90977584      -0.90977584
C       -0.00465871       1.77757030       0.00794375
H       -0.66225468       2.44313916      -0.64384735
H        0.64322798       2.43503045       0.67728295
C       -1.78241447       0.00034974      -0.00472694
H       -2.45427497      -0.65498947       0.64260836
H       -2.43311707       0.67328779      -0.65473579
C       -0.91132561       0.90220522       0.91563759
C       -0.01476271      -0.02253852       1.78660255
H       -0.67934791      -0.69751639       2.42135241
H        0.63392994       0.61504881       2.47327442
C        0.01484550      -1.77751727      -0.01636693
H        0.67870853      -2.42144646      -0.68295456
H       -0.62264859      -2.45592969       0.64226336
C        1.78714474       0.01002794       0.00389507
H        2.44202412       0.67113390       0.66197326
H        2.45385902      -0.65136977      -0.64189061
C        0.91606151      -0.90478549       0.90901405
