37
Properties=species:S:1:pos:R:3 pbc="F F F"
C        0.00000000       0.00000000       0.00000000
C        0.91438775       0.91438775      -0.91438775
C        1.32141231       2.14976566      -0.14788402
H        0.32600024       1.15293094      -1.80582537
H        1.77394402       0.30401910      -1.20686077
H        1.90963908       1.91136884       0.74306510
H        0.46188135       2.76010587       0.14426613
C        2.15270605       2.98118698      -0.97932212
C        2.84891455       3.67750233      -1.67565153
Br       3.97462482       4.80338536      -2.80155730
C       -0.91438775      -0.91438775      -0.91438775
C       -1.11898443      -0.24700027      -2.25307729
H       -1.85459763      -1.05736701      -0.37279190
H       -0.40366032      -1.87780284      -1.00336074
H       -0.17924656      -0.10419969      -2.79449658
H       -1.62989485       0.71616915      -2.16399540
C       -1.95045920      -1.07834973      -3.08440621
C       -2.64681933      -1.77460490      -3.78064418
Br      -3.77277476      -2.90039062      -4.90640210
C       -0.91438775       0.91438775       0.91438775
C       -1.14669277       0.23162414       2.24074508
H       -1.84493363       1.07782631       0.36199662
H       -0.39179072       1.86930346       1.02372972
H       -0.21661392       0.06837321       2.79295570
H       -1.66946787      -0.72304191       2.13129513
C       -1.97816724       1.06297562       3.07207229
C       -2.67452711       1.75923248       3.76830882
Br      -3.80048212       2.88502095       4.89406441
C        0.91438775      -0.91438775       0.91438775
C        1.25865219      -2.18507306       0.17533674
H        0.34754212      -1.10657726       1.83063716
H        1.80117607      -0.32291029       1.16073754
H        1.82534824      -1.99300963      -0.74041505
H        0.37190027      -2.77651298      -0.07069216
C        2.08994658      -3.01648981       1.00677876
C        2.78615564      -3.71280133       1.70311144
Br       3.91186679      -4.83867818       2.82902250
