50
Properties=species:S:1:pos:R:3 pbc="F F F"
C        1.82429177       1.82429177      -1.82429177
C        2.23131634       3.05966968      -1.05778804
Br       3.35533220       4.18385805      -2.18199911
H        1.23590426       2.06283496      -2.71572940
H        2.68384804       1.21392313      -2.11676480
H        2.81954311       2.82127287      -0.16683892
H        1.37178537       3.67000990      -0.76563790
C       -1.82429177      -1.82429177      -1.82429177
C       -2.05280688      -1.14359731      -3.15236988
Br      -3.17706717      -2.26769088      -4.27643131
H       -2.75618407      -1.98493284      -1.27335171
H       -1.30329369      -2.78039551      -1.93084677
H       -1.12138229      -0.98314265      -3.70312995
H       -2.57398371      -0.18774269      -3.04570676
C       -1.82429177       1.82429177       1.82429177
C       -2.08198626       1.12794354       3.13884426
Br      -3.20624606       2.25204001       4.26290330
H       -2.74561724       2.00646391       1.26238747
H       -1.29118342       2.77104079       1.95231176
H       -1.16112309       0.94596720       3.70056460
H       -2.61526816       0.18144776       3.01071724
C        1.82429177      -1.82429177       1.82429177
C        2.21459202      -3.06936801       1.06481404
Br       3.33860808      -4.19355474       2.18902654
H        1.24143520      -2.05047489       2.72255853
H        2.69131424      -1.21873999       2.10448174
H        2.79729074      -2.84332585       0.16703831
H        1.34759780      -3.67488889       0.78494648
C       -0.00445707       0.01189536      -1.78238275
H       -0.66409135       0.67374010      -2.43557963
H        0.65740317      -0.63156657      -2.45157240
C       -0.90989263      -0.90692880      -0.91072765
C        0.90977584       0.90977584      -0.90977584
C       -0.00465871       1.77757030       0.00794375
H       -0.66225468       2.44313916      -0.64384735
H        0.64322798       2.43503045       0.67728295
C       -1.78241447       0.00034974      -0.00472694
H       -2.45427497      -0.65498947       0.64260836
H       -2.43311707       0.67328779      -0.65473579
C       -0.91132561       0.90220522       0.91563759
C       -0.01476271      -0.02253852       1.78660255
H       -0.67934791      -0.69751639       2.42135241
H        0.63392994       0.61504881       2.47327442
C        0.01484550      -1.77751727      -0.01636693
H        0.67870853      -2.42144646      -0.68295456
H       -0.62264859      -2.45592969       0.64226336
C        1.78714474       0.01002794       0.00389507
H        2.44202412       0.67113390       0.66197326
H        2.45385902      -0.65136977      -0.64189061
C        0.91606151      -0.90478549       0.90901405
