45
Properties=species:S:1:pos:R:3 pbc="F F F"
C        0.00000000       0.00000000       0.00000000
C        0.91453540       0.91453540      -0.91453540
C        1.92720892       1.59291518      -0.11351342
C        2.76249959       2.15294899       0.54231093
C        3.82650817       2.86541026       1.38160136
C        4.65311221       3.41872693       2.03508234
C        5.65601929       4.09006486       2.82793565
Br       7.00016866       4.91789013       1.68738293
H        0.24553626       1.62183103      -1.41109339
H        1.36052836       0.25494943      -1.66316785
H        6.19430534       3.39952042       3.48212699
H        5.23174927       4.89520110       3.43317992
C       -0.91453540      -0.91453540      -0.91453540
C       -0.16664709      -1.39688288      -2.07010755
C        0.44563571      -1.79627372      -3.02249963
C        1.22941680      -2.30393789      -4.23579598
C        1.83970081      -2.69788292      -5.17857469
C        2.58014218      -3.17585131      -6.32243938
Br       1.59535569      -4.57836321      -7.24766834
H       -1.76927243      -0.30035906      -1.20882919
H       -1.26201167      -1.73498203      -0.28165194
H        3.54023665      -3.61391118      -6.03802423
H        2.75354233      -2.38773431      -7.05957846
C       -0.91453540       0.91453540       0.91453540
C       -1.62682012       1.89900809       0.10780930
C       -2.21521692       2.71070752      -0.55278679
C       -2.96411645       3.74440816      -1.39820753
C       -3.54566376       4.54753103      -2.05643799
C       -4.25124707       5.52195413      -2.85505269
Br      -5.63957753       6.39989681      -1.80879848
H       -0.24960654       1.38689987       1.64195427
H       -1.59960770       0.24209328       1.43694467
H       -4.75620423       5.06586786      -3.71037333
H       -3.59154985       6.31607630      -3.21385570
C        0.91453540      -0.91453540       0.91453540
C        0.11265829      -1.59761075       1.92336847
C       -0.54395896      -2.16199847       2.75509813
C       -1.38430472      -2.88025468       3.81436712
C       -2.03858700      -3.43797133       4.63737246
C       -2.83241133      -4.11464127       5.63591857
Br      -1.79441053      -5.50558891       6.51949748
H        1.66017956      -0.25407505       1.36420607
H        1.41479599      -1.61878306       0.24506659
H       -3.70308452      -4.61281935       5.20196394
H       -3.16752771      -3.43647939       6.42481877
