66
Properties=species:S:1:pos:R:3 pbc="F F F"
C        1.82443943       1.82443943      -1.82443943
C        2.83711294       2.50281921      -1.02341744
C        3.67240361       3.06285301      -0.36759309
C        4.73641219       3.77531429       0.47169734
C        5.56301623       4.32863096       1.12517832
C        6.56592332       4.99996889       1.91803162
Br       7.91007268       5.82779416       0.77747891
H        1.15544028       2.53173505      -2.32099742
H        2.27043239       1.16485346      -2.57307187
H        7.10420937       4.30942444       2.57222297
H        6.14165329       5.80510512       2.52327589
C       -1.82443943      -1.82443943      -1.82443943
C       -1.12635753      -2.18319562      -3.05379644
C       -0.55499150      -2.48099079      -4.06686743
C        0.17657736      -2.85898222      -5.35762428
C        0.74625222      -3.15208530      -6.36063579
C        1.43742284      -3.50770380      -7.57757962
Br       0.48259314      -4.91218931      -8.53079176
H       -2.73340033      -1.25124565      -2.02352678
H       -2.07738091      -2.70394791      -1.22702890
H        2.43968521      -3.89790163      -7.38319441
H        1.51210077      -2.66545938      -8.27012391
C       -1.82443943       1.82443943       1.82443943
C       -2.64455413       2.71154523       1.00725023
C       -3.32158134       3.44318751       0.33808086
C       -4.18360095       4.37469736      -0.51826917
C       -4.85311972       5.09835406      -1.18500491
C       -5.66543748       5.97636239      -1.99393929
Br      -7.04179544       6.83454826      -0.91595578
H       -1.14862017       2.38078810       2.47876448
H       -2.43311833       1.14683404       2.42840535
H       -6.19055048       5.43765678      -2.78679642
H       -5.07999942       6.78404873      -2.44056563
C        1.82443943      -1.82443943       1.82443943
C        1.04240829      -2.41770131       2.90323998
C        0.40208377      -2.90826418       3.79250177
C       -0.41747682      -3.53229537       4.92521059
C       -1.05559060      -4.01673558       5.80532390
C       -1.82979770      -4.60450033       6.87315796
Br      -0.81633782      -6.00196162       7.77476414
H        2.62226507      -1.18143937       2.20446832
H        2.25645887      -2.58392772       1.16797112
H       -2.74383593      -5.07860177       6.50664500
H       -2.09233501      -3.87360790       7.64220962
C       -0.00445707       0.01189536      -1.78238275
H       -0.66409135       0.67374010      -2.43557963
H        0.65740317      -0.63156657      -2.45157240
C       -0.90989263      -0.90692880      -0.91072765
C        0.90977584       0.90977584      -0.90977584
C       -0.00465871       1.77757030       0.00794375
H       -0.66225468       2.44313916      -0.64384735
H        0.64322798       2.43503045       0.67728295
C       -1.78241447       0.00034974      -0.00472694
H       -2.45427497      -0.65498947       0.64260836
H       -2.43311707       0.67328779      -0.65473579
C       -0.91132561       0.90220522       0.91563759
C       -0.01476271      -0.02253852       1.78660255
H       -0.67934791      -0.69751639       2.42135241
H        0.63392994       0.61504881       2.47327442
C        0.01484550      -1.77751727      -0.01636693
H        0.67870853      -2.42144646      -0.68295456
H       -0.62264859      -2.45592969       0.64226336
C        1.78714474       0.01002794       0.00389507
H        2.44202412       0.67113390       0.66197326
H        2.45385902      -0.65136977      -0.64189061
C        0.91606151      -0.90478549       0.90901405
