74
Properties=species:S:1:pos:R:3 pbc="F F F"
C        1.81640449       1.81640449      -1.81640449
N        1.95317833       3.12979523      -1.19359848
C        3.17518636       3.67580076      -1.79451996
C        4.11974559       2.48834374      -1.91084449
Br       5.20581715       2.60923752      -3.51262858
C        3.22572547       1.25657255      -1.92790023
H        1.32996961       1.89451495      -2.79421740
H        2.09835986       2.98438989      -0.19385741
H        2.92733796       4.11864116      -2.76658453
H        3.59728893       4.47068883      -1.17084250
H        4.81636970       2.44667610      -1.06623012
H        3.32884666       0.64108916      -2.82802232
H        3.48910116       0.61983635      -1.07369681
C       -1.81640449      -1.81640449      -1.81640449
N       -2.28259452      -2.95850712      -1.03547039
C       -3.47693125      -3.41117442      -1.75740141
C       -4.16146134      -2.13434440      -2.22312809
Br      -4.99371967      -2.37627682      -3.95768676
C       -3.06698272      -1.07740635      -2.26580917
H       -1.20859266      -2.14391774      -2.66619156
H       -2.55003422      -2.61378703      -0.11278591
H       -3.16791411      -4.05551606      -2.58913349
H       -4.12642824      -4.00580498      -1.10658704
H       -4.95972241      -1.83426901      -1.53528450
H       -2.91801846      -0.62693368      -3.25300600
H       -3.33791661      -0.26369740      -1.58102032
C       -1.81640449       1.81640449       1.81640449
N       -2.07275793       1.12649711       3.07731700
C       -2.43878385       2.20774779       3.99897544
C       -1.52539510       3.36664863       3.62689009
Br      -2.43344060       5.06833097       3.82591168
C       -1.11300168       3.11344245       2.18375411
H       -2.74877444       1.99806362       1.27186390
H       -1.19637545       0.70000052       3.38023118
H       -3.50128333       2.44451855       3.86676178
H       -2.29937344       1.89915995       5.04028686
H       -0.64473433       3.40711816       4.27742343
H       -1.39107518       3.91539110       1.49149186
H       -0.02028081       3.02020444       2.14214907
C        1.81640449      -1.81640449       1.81640449
N        1.94583327      -1.19808327       3.13265549
C        2.32495648      -2.31365881       4.00689179
C        1.51683476      -3.50014659       3.50195247
Br       2.52292225      -5.15076788       3.65399313
C        1.18008225      -3.17694227       2.05317372
H        2.79132956      -1.90193080       1.32544160
H        1.02541338      -0.84898400       3.40220978
H        3.40718792      -2.47359465       3.93178109
H        2.09978485      -2.08519821       5.05383720
H        0.60166036      -3.63967456       4.08794099
H        1.55451758      -3.91140362       1.33203694
H        0.08836134      -3.15014249       1.94413049
C       -0.00445707       0.01189536      -1.78238275
H       -0.66409135       0.67374010      -2.43557963
H        0.65740317      -0.63156657      -2.45157240
C       -0.90989263      -0.90692880      -0.91072765
C        0.90977584       0.90977584      -0.90977584
C       -0.00465871       1.77757030       0.00794375
H       -0.66225468       2.44313916      -0.64384735
H        0.64322798       2.43503045       0.67728295
C       -1.78241447       0.00034974      -0.00472694
H       -2.45427497      -0.65498947       0.64260836
H       -2.43311707       0.67328779      -0.65473579
C       -0.91132561       0.90220522       0.91563759
C       -0.01476271      -0.02253852       1.78660255
H       -0.67934791      -0.69751639       2.42135241
H        0.63392994       0.61504881       2.47327442
C        0.01484550      -1.77751727      -0.01636693
H        0.67870853      -2.42144646      -0.68295456
H       -0.62264859      -2.45592969       0.64226336
C        1.78714474       0.01002794       0.00389507
H        2.44202412       0.67113390       0.66197326
H        2.45385902      -0.65136977      -0.64189061
C        0.91606151      -0.90478549       0.90901405
