130
Properties=species:S:1:pos:R:3 pbc="F F F"
C        1.83106300       1.83106300      -1.83106300
H        1.57820151       2.86296054      -1.57426807
C        1.59645397       1.49960442      -3.29144197
N        2.45420615       0.33394832      -3.54778125
C        3.69208718       0.58230453      -2.77617561
H        4.37379422       1.13994738      -3.43289464
C        3.29651732       1.50156395      -1.60641998
C        4.43710376      -0.70134941      -2.32269146
H        5.35796433      -0.38186890      -1.81584353
N        3.68519461      -1.54211086      -1.36499999
C        4.17064540      -2.91162438      -1.58628412
C        4.36335719      -3.00938931      -3.08658832
H        5.05660379      -3.80028560      -3.38439259
C        4.82991639      -1.62220715      -3.49212905
H        1.92699502       2.32826437      -3.92900469
H        0.55198947       1.28449996      -3.53863887
H        1.98591823      -0.49538799      -3.18073566
H        3.49916836       1.07276855      -0.61993560
H        3.88495863       2.42513943      -1.67955920
H        2.69126481      -1.51330611      -1.59542127
H        5.12988254      -3.03404820      -1.06925660
H        3.47397393      -3.64965509      -1.17616794
H        5.92420756      -1.62446260      -3.57660958
H        4.43698687      -1.29756723      -4.46081190
C        3.10947097      -3.31986503      -3.72296413
C        2.05934126      -3.57988844      -4.25592887
Br       0.36137033      -4.00032431      -5.11768778
C       -1.83106300      -1.83106300      -1.83106300
H       -1.89177677      -1.32544865      -2.79820470
C       -3.18107255      -2.03406001      -1.17236781
N       -2.96834706      -3.13981462      -0.22777404
C       -2.05483994      -4.07531799      -0.92040939
H       -2.68219223      -4.77516707      -1.48927694
C       -1.24930499      -3.23086634      -1.92432993
C       -1.16144470      -4.92190031       0.02489919
H       -0.57888628      -5.60800313      -0.60504955
N       -0.19230414      -4.13658020       0.82080059
C        0.03107504      -4.92031515       2.04393497
C       -1.33079634      -5.49290071       2.38314085
H       -1.28221775      -6.37933724       3.02084421
C       -1.96682344      -5.76397004       1.03095519
H       -3.92600096      -2.34280972      -1.91545340
H       -3.56722496      -1.14607402      -0.66182933
H       -2.50696654      -2.76728806       0.60298870
H       -0.16751640      -3.26357436      -1.76078175
H       -1.43149720      -3.62636090      -2.93179915
H       -0.61287334      -3.24460801       1.08410138
H        0.73995566      -5.72692551       1.82187892
H        0.46602128      -4.30252212       2.83601406
H       -1.83198381      -6.82375587       0.77938514
H       -3.04328418      -5.56670366       1.00975630
C       -2.10376519      -4.52098348       3.11217861
C       -2.75112661      -3.70700281       3.72274774
Br      -3.79785528      -2.39086491       4.70998637
C       -1.83106300       1.83106300       1.83106300
H       -2.21645955       1.17948481       2.61948576
C       -2.92026798       2.47262014       0.99461225
N       -2.28092153       3.65496340       0.40005079
C       -1.39799318       4.19514703       1.45742711
H       -1.99752972       4.90269118       2.04641534
C       -1.03214105       3.00701003       2.36535018
C       -0.15991471       4.96827138       0.93025972
H        0.37526957       5.36203434       1.80517419
N        0.80294571       4.14106011       0.16996935
C        1.45747861       5.06746107      -0.76467731
C        0.35123911       6.00271878      -1.21092348
H        0.71910947       6.95685827      -1.59703801
C       -0.52556286       6.15451109       0.01976435
H       -3.74805282       2.80262147       1.63358979
H       -3.33553584       1.81692531       0.22266715
H       -1.71433295       3.34871994      -0.39178700
H        0.04312850       2.81096091       2.42404010
H       -1.37074503       3.23468172       3.38423051
H        0.29508765       3.44257697      -0.37410934
H        2.23338479       5.62367587      -0.22520014
H        1.94282029       4.52663056      -1.58332350
H       -0.25489400       7.08326359       0.53819696
H       -1.59318036       6.21979831      -0.21274713
C       -0.39614289       5.40124540      -2.28481823
C       -1.02207532       4.89751144      -3.18420507
Br      -2.03415511       4.08301623      -4.63843753
C        1.83106300      -1.83106300       1.83106300
H        1.64758866      -2.85920405       1.50863742
C        1.50463736      -1.59114925       3.29171375
N        2.28415367      -0.39868879       3.65309327
C        3.57141695      -0.54156128       2.93758909
H        4.24771964      -1.09820078       3.60071581
C        3.28620766      -1.41550201       1.70279159
C        4.26842097       0.80103657       2.59106141
H        5.22984148       0.55678107       2.11887855
N        3.52224092       1.65263456       1.63847739
C        3.92129605       3.03125597       1.95526506
C        4.03155711       3.05780367       3.46680276
H        4.66508454       3.86590034       3.84152659
C        4.55081081       1.67644746       3.82547495
H        1.84631635      -2.43496846       3.90297927
H        0.43884096      -1.44331446       3.49297289
H        1.79125003       0.42419933       3.30421519
H        3.51561023      -0.92441207       0.75185021
H        3.91902449      -2.31040306       1.76022970
H        2.52083177       1.56071842       1.81326663
H        4.89771014       3.23019451       1.49757531
H        3.20775651       3.75374114       1.54647141
H        5.63764503       1.73005732       3.96876683
H        4.12695534       1.28046248       4.75373869
C        2.73189679       3.26908886       4.04976213
C        1.64343128       3.44604020       4.53799061
Br      -0.11652540       3.73215555       5.32741477
C       -0.00445707       0.01189536      -1.78238275
H       -0.66409135       0.67374010      -2.43557963
H        0.65740317      -0.63156657      -2.45157240
C       -0.90989263      -0.90692880      -0.91072765
C        0.90977584       0.90977584      -0.90977584
C       -0.00465871       1.77757030       0.00794375
H       -0.66225468       2.44313916      -0.64384735
H        0.64322798       2.43503045       0.67728295
C       -1.78241447       0.00034974      -0.00472694
H       -2.45427497      -0.65498947       0.64260836
H       -2.43311707       0.67328779      -0.65473579
C       -0.91132561       0.90220522       0.91563759
C       -0.01476271      -0.02253852       1.78660255
H       -0.67934791      -0.69751639       2.42135241
H        0.63392994       0.61504881       2.47327442
C        0.01484550      -1.77751727      -0.01636693
H        0.67870853      -2.42144646      -0.68295456
H       -0.62264859      -2.45592969       0.64226336
C        1.78714474       0.01002794       0.00389507
H        2.44202412       0.67113390       0.66197326
H        2.45385902      -0.65136977      -0.64189061
C        0.91606151      -0.90478549       0.90901405
