138
Properties=species:S:1:pos:R:3 pbc="F F F"
C        1.82995062       1.82995062      -1.82995062
H        1.37894607       2.82546422      -1.81028706
C        1.93574071       1.24512172      -3.22405974
N        2.97608849       0.21112811      -3.11946448
C        3.96465579       0.73697073      -2.16114334
H        4.78760364       1.19533162      -2.72265528
C        3.26008492       1.81365250      -1.32621721
C        4.50034916      -0.34404111      -1.32477459
C        4.93997488      -1.22035257      -0.63416209
C        5.50290410      -2.33271402       0.25606724
C        5.94735431      -3.19772253       0.95843537
C        6.48734866      -4.24838519       1.82397370
H        5.68069860      -4.65933293       2.44425626
N        7.07046780      -5.33909726       1.03124333
C        7.99396157      -6.00635876       1.95972776
C        8.62958502      -4.87909092       2.75660088
H        8.89898891      -5.17910703       3.77309354
C        7.61681515      -3.74303627       2.72388797
Br      10.29838119      -4.31554007       1.90449634
H        2.27070241       2.01068816      -3.93408028
H        0.99810691       0.82580695      -3.60241358
H        2.54588332      -0.61881260      -2.70309997
H        3.34101518       1.66401056      -0.24373418
H        3.72001669       2.78410602      -1.55477473
H        7.62246425      -4.92303536       0.27733120
H        7.41191996      -6.65639255       2.62416287
H        8.70720895      -6.63895386       1.42208385
H        7.22472641      -3.56123603       3.73211805
H        8.04507176      -2.79623514       2.37377133
C       -1.82995062      -1.82995062      -1.82995062
H       -2.65557702      -2.16326749      -1.19585284
C       -1.02085857      -2.97110058      -2.41296302
N       -0.33806275      -2.39006695      -3.57855138
C       -1.28792720      -1.42104472      -4.15379794
H       -1.82031755      -1.90221934      -4.98305365
C       -2.29059831      -1.05816025      -3.05119607
C       -0.57866928      -0.24045476      -4.66195859
C       -0.00769641       0.72958189      -5.07566989
C        0.71302746       1.97473323      -5.60188354
C        1.26967507       2.95389861      -6.01477009
C        1.94321547       4.15497167      -6.51317691
H        2.41460954       4.68255805      -5.67427700
N        2.98218391       3.81073832      -7.49304944
C        3.18107989       5.04955645      -8.25851139
C        1.78884093       5.63723014      -8.41996429
H        1.79388975       6.72960725      -8.47028535
C        0.98786661       5.10302837      -7.24078588
Br       0.99593461       5.02730364     -10.10158304
H       -1.68544466      -3.77226019      -2.75776600
H       -0.30331446      -3.41030783      -1.71270515
H        0.47211922      -1.86864124      -3.23364867
H       -2.39174561       0.01873289      -2.87574719
H       -3.27948924      -1.43297167      -3.34643654
H        2.59970539       3.10369683      -8.12549991
H        3.81043342       5.72707302      -7.66887097
H        3.70174025       4.85308028      -9.20099177
H        0.71257674       5.92673247      -6.57068152
H        0.05439707       4.61322353      -7.54268589
C       -1.82995062       1.82995062       1.82995062
H       -1.38414383       2.82763038       1.80292315
C       -1.92566375       1.25172169       3.22753673
N       -2.96123348       0.21193243       3.13351517
C       -3.95733284       0.72784039       2.17759664
H       -4.77974689       1.18487506       2.74096859
C       -3.26252501       1.80380991       1.33361971
C       -4.49174069      -0.36013936       1.34948131
C       -4.93038832      -1.24219104       0.66558713
C       -5.49214492      -2.36193319      -0.21608889
C       -5.93573441      -3.23276681      -0.91177120
C       -6.47474646      -4.29056904      -1.76918764
H       -5.66917074      -4.70057491      -2.39148642
N       -7.04824851      -5.38016674      -0.96795457
C       -7.97302877      -6.05684871      -1.88830502
C       -8.61844549      -4.93691228      -2.68763999
H       -8.89147648      -5.24348327      -3.70120486
C       -7.61133975      -3.79557205      -2.66587680
Br     -10.28574623      -4.37750522      -1.82989623
H       -2.26091897       2.01919313       3.93535874
H       -0.98398882       0.83911687       3.60322175
H       -2.52891571      -0.61792719       2.71918217
H       -3.34819095       1.64823006       0.25233890
H       -3.72624113       2.77306808       1.55958824
H       -7.59852412      -4.96306972      -0.21335672
H       -7.39105861      -6.70730168      -2.55239239
H       -8.68029284      -6.69030602      -1.34381557
H       -7.22531490      -3.61693459      -3.67700799
H       -8.04264281      -2.84918360      -2.31839392
C        1.82995062      -1.82995062       1.82995062
H        2.80036634      -1.88453352       1.32979751
C        1.18311973      -3.18474734       2.03705510
N        0.21118004      -2.97504228       3.12045876
C        0.83461501      -1.99764882       4.03050604
H        1.30686319      -2.54084232       4.85788503
C        1.91314425      -1.25586112       3.23094925
C       -0.17428120      -1.08059999       4.57476385
C       -0.99122823      -0.32435169       5.02066095
C       -2.02730723       0.64940022       5.59083030
C       -2.83214714       1.41702376       6.04036731
C       -3.80910432       2.36179852       6.58589261
H       -4.23030299       2.96194742       5.76935982
N       -4.90586586       1.65681503       7.26280809
C       -5.47731692       2.66338639       8.16857835
C       -4.28039388       3.43094059       8.70522769
H       -4.51526918       4.47377376       8.93583129
C       -3.20166124       3.28898017       7.64053231
Br      -3.67354802       2.63430595      10.38619876
H        1.92900236      -3.91623192       2.37023657
H        0.69730642      -3.58670157       1.14231945
H       -0.61841214      -2.53781619       2.71076664
H        1.82170231      -0.16437440       3.26268319
H        2.89373340      -1.51161466       3.65354939
H       -4.49944978       0.91050714       7.83205461
H       -6.12309534       3.33115073       7.58561061
H       -6.09773675       2.19540524       8.93931323
H       -2.99083843       4.26571777       7.18792852
H       -2.25233228       2.91164583       8.03904340
C       -0.00445707       0.01189536      -1.78238275
H       -0.66409135       0.67374010      -2.43557963
H        0.65740317      -0.63156657      -2.45157240
C       -0.90989263      -0.90692880      -0.91072765
C        0.90977584       0.90977584      -0.90977584
C       -0.00465871       1.77757030       0.00794375
H       -0.66225468       2.44313916      -0.64384735
H        0.64322798       2.43503045       0.67728295
C       -1.78241447       0.00034974      -0.00472694
H       -2.45427497      -0.65498947       0.64260836
H       -2.43311707       0.67328779      -0.65473579
C       -0.91132561       0.90220522       0.91563759
C       -0.01476271      -0.02253852       1.78660255
H       -0.67934791      -0.69751639       2.42135241
H        0.63392994       0.61504881       2.47327442
C        0.01484550      -1.77751727      -0.01636693
H        0.67870853      -2.42144646      -0.68295456
H       -0.62264859      -2.45592969       0.64226336
C        1.78714474       0.01002794       0.00389507
H        2.44202412       0.67113390       0.66197326
H        2.45385902      -0.65136977      -0.64189061
C        0.91606151      -0.90478549       0.90901405
