146
Properties=species:S:1:pos:R:3 pbc="F F F"
C        1.82995062       1.82995062      -1.82995062
H        1.37894607       2.82546422      -1.81028706
C        1.93574071       1.24512172      -3.22405974
N        2.97608849       0.21112811      -3.11946448
C        3.96465579       0.73697073      -2.16114334
H        4.78760364       1.19533162      -2.72265528
C        3.26008492       1.81365250      -1.32621721
C        4.50034916      -0.34404111      -1.32477459
C        4.93997488      -1.22035257      -0.63416209
C        5.50290410      -2.33271402       0.25606724
C        5.94735431      -3.19772253       0.95843537
C        6.48734866      -4.24838519       1.82397370
H        5.68069860      -4.65933293       2.44425626
N        7.07046780      -5.33909726       1.03124333
C        7.99396157      -6.00635876       1.95972776
C        8.62958502      -4.87909092       2.75660088
H        8.89898891      -5.17910703       3.77309354
C        7.61681515      -3.74303627       2.72388797
H        2.27070241       2.01068816      -3.93408028
H        0.99810691       0.82580695      -3.60241358
H        2.54588332      -0.61881260      -2.70309997
H        3.34101518       1.66401056      -0.24373418
H        3.72001669       2.78410602      -1.55477473
H        7.62246425      -4.92303536       0.27733120
H        7.41191996      -6.65639255       2.62416287
H        8.70720895      -6.63895386       1.42208385
H        7.22472641      -3.56123603       3.73211805
H        8.04507176      -2.79623514       2.37377133
C        9.85772676      -4.46434865       2.12949904
C       10.88629546      -4.11700199       1.60430125
Br      12.54940407      -3.55537182       0.75510084
C       -1.82995062      -1.82995062      -1.82995062
H       -1.43931549      -2.84589829      -1.72948359
C       -1.82487419      -1.32219243      -3.25785555
N       -2.80755288      -0.22830900      -3.27081920
C       -3.87612902      -0.64250494      -2.34413590
H       -4.69224631      -1.08684151      -2.92650272
C       -3.28221860      -1.70591094      -1.41182508
C       -4.39321540       0.51305868      -1.60092591
C       -4.81843320       1.45083291      -0.98618412
C       -5.36380391       2.64227089      -0.19258982
C       -5.79513299       3.56972634       0.43421024
C       -6.31987167       4.69696901       1.20791289
H       -5.52598192       5.09835402       1.85051849
N       -6.79422065       5.77014382       0.32394962
C       -7.72696569       6.53992660       1.15916405
C       -8.46981011       5.49747034       1.97844656
H       -8.77673052       5.87038342       2.95955875
C       -7.52449830       4.30754359       2.06706381
H       -2.16426393      -2.10817417      -3.94303275
H       -0.84510236      -0.97768670      -3.60353838
H       -2.35336037       0.59954805      -2.87635837
H       -3.41362968      -1.48940461      -0.34572562
H       -3.78451912      -2.66128600      -1.61309233
H       -7.32723192       5.34191414      -0.43677990
H       -7.14549719       7.19453040       1.81960225
H       -8.37165203       7.17841787       0.54706291
H       -7.19958651       4.16338227       3.10483192
H       -7.98717632       3.36694262       1.74516841
C       -9.68368855       5.11504922       1.30476026
C      -10.70031175       4.79477153       0.74054799
Br     -12.34410547       4.27690959      -0.17173553
C       -1.82995062       1.82995062       1.82995062
H       -2.22335767       1.17753617       2.61380352
C       -2.91124723       2.49307426       1.00060069
N       -2.25502123       3.65978860       0.39187125
C       -1.30450336       4.15450041       1.40376609
H       -1.77371768       4.98107883       1.95079403
C       -1.02941083       2.99774923       2.37279457
C       -0.07531469       4.64062734       0.76514060
C        0.93399936       5.03576253       0.25202124
C        2.22885613       5.53764547      -0.39466649
C        3.24664370       5.93098975      -0.89314964
C        4.49437334       6.40506347      -1.49570036
H        5.00694772       5.56441841      -1.98036128
N        4.23445441       7.43998049      -2.50539888
C        5.51062276       8.15978959      -2.62129179
C        6.04493923       8.23959858      -1.20076613
H        7.13769341       8.24382466      -1.15934290
C        5.42991341       7.05254000      -0.47273569
H       -3.72515045       2.84420503       1.64611537
H       -3.34776338       1.84172337       0.23684070
H       -1.71421535       3.32630156      -0.41034622
H        0.03423040       2.77293873       2.51005158
H       -1.43343047       3.26820392       3.35726305
H        3.53811635       8.08573176      -2.12551773
H        6.18966825       7.56804332      -3.24701053
H        5.37476210       9.13009214      -3.10915880
H        6.21335814       6.33756839      -0.19283794
H        4.91371302       7.33675691       0.45202140
C        5.62238001       9.47035515      -0.58409607
C        5.26848666      10.50111378      -0.06763489
Br       4.69627105      12.16776331       0.76743915
C        1.82995062      -1.82995062       1.82995062
H        2.42560706      -1.14742638       2.44166392
C        2.66859142      -2.75993819       0.97639256
N        1.77380060      -3.88088521       0.65199527
C        0.93544394      -4.07957296       1.84775296
H        1.36861386      -4.88793509       2.44904158
C        0.97407930      -2.77396702       2.65190830
C       -0.43277593      -4.44897117       1.46488740
C       -1.55394296      -4.74682405       1.16090331
C       -2.98980139      -5.12244658       0.78147766
C       -4.11672620      -5.41524568       0.49267693
C       -5.49581316      -5.76508040       0.14572253
H       -5.95974600      -4.92775165      -0.39089625
N       -5.53921977      -6.95459567      -0.71524870
C       -6.90311266      -7.47473569      -0.54374798
C       -7.21429822      -7.27748602       0.93070542
H       -8.27754555      -7.10497447       1.11935943
C       -6.33839765      -6.11408538       1.37420317
H        3.51858522      -3.14378384       1.55310179
H        3.06402402      -2.29404798       0.06825545
H        1.16409714      -3.57819873      -0.11212518
H       -0.01477437      -2.36898866       2.89454562
H        1.48698482      -2.96897576       3.60293687
H       -4.88559240      -7.64414395      -0.33645386
H       -7.58559129      -6.87390833      -1.15695250
H       -6.97749365      -8.51119239      -0.88752750
H       -6.96463016      -5.25414085       1.64186163
H       -5.72693761      -6.34817749       2.25382541
C       -6.87041705      -8.46459876       1.66969736
C       -6.58241656      -9.45880568       2.28860311
Br      -6.11674413     -11.06635418       3.28932135
C       -0.00445707       0.01189536      -1.78238275
H       -0.66409135       0.67374010      -2.43557963
H        0.65740317      -0.63156657      -2.45157240
C       -0.90989263      -0.90692880      -0.91072765
C        0.90977584       0.90977584      -0.90977584
C       -0.00465871       1.77757030       0.00794375
H       -0.66225468       2.44313916      -0.64384735
H        0.64322798       2.43503045       0.67728295
C       -1.78241447       0.00034974      -0.00472694
H       -2.45427497      -0.65498947       0.64260836
H       -2.43311707       0.67328779      -0.65473579
C       -0.91132561       0.90220522       0.91563759
C       -0.01476271      -0.02253852       1.78660255
H       -0.67934791      -0.69751639       2.42135241
H        0.63392994       0.61504881       2.47327442
C        0.01484550      -1.77751727      -0.01636693
H        0.67870853      -2.42144646      -0.68295456
H       -0.62264859      -2.45592969       0.64226336
C        1.78714474       0.01002794       0.00389507
H        2.44202412       0.67113390       0.66197326
H        2.45385902      -0.65136977      -0.64189061
C        0.91606151      -0.90478549       0.90901405
