130
Properties=species:S:1:pos:R:3 pbc="F F F"
C        1.81695827       1.81695827      -1.81695827
H        1.28276214       2.75866895      -1.97807633
N        3.08703489       2.04110557      -1.13916205
C        4.02863605       2.35315253      -2.21077409
C        3.63318235       1.46534442      -3.39265617
H        3.68862369       2.06867117      -4.30933903
C        2.15762632       1.12432465      -3.12689916
C        4.49308848       0.20006955      -3.63035138
H        4.04918959      -0.33489562      -4.48132490
C        4.61472027      -0.77841351      -2.46040542
N        5.92320232      -0.53050304      -1.86183522
C        6.79662907      -0.23661532      -2.99030548
H        7.19922527      -1.15498894      -3.42913274
C        5.94985431       0.54442227      -3.98272474
H        3.35301376       1.17123107      -0.67917775
H        3.90599606       3.40846818      -2.48636659
H        5.06345367       2.23534119      -1.88279682
H        1.52924512       1.51934857      -3.93438890
H        1.99319721       0.04140323      -3.10278021
H        4.59374912      -1.80836939      -2.83883569
H        3.81451996      -0.70178503      -1.72150208
H        5.88850189       0.29840510      -1.27003282
H        6.12656816       1.62539050      -3.95078146
H        6.17576492       0.21970097      -5.00582308
C        7.91271166       0.54526536      -2.52487850
C        8.84743082       1.20009042      -2.13508341
Br      10.35879266       2.25888717      -1.50481771
C       -1.81695827      -1.81695827      -1.81695827
H       -1.55762840      -2.85868573      -1.60319329
N       -3.21446793      -1.54742872      -1.50540585
C       -3.94435764      -1.94076511      -2.70743993
C       -3.05656204      -1.54529499      -3.88932592
H       -3.08048288      -2.36099330      -4.62515772
C       -1.64275711      -1.47737456      -3.28871846
C       -3.43676224      -0.24612082      -4.64062635
H       -2.67966742      -0.09368533      -5.42226612
C       -3.52475338       1.03160219      -3.80356099
N       -4.94737476       1.26449576      -3.57165550
C       -5.59593519       0.85644638      -4.81083042
H       -5.60669026       1.67298955      -5.53966836
C       -4.81486385      -0.34647179      -5.31566568
H       -3.31117263      -0.54512822      -1.34712173
H       -4.07579749      -3.03037200      -2.69466134
H       -4.94604651      -1.50665081      -2.72889437
H       -0.99377574      -2.21886599      -3.77034087
H       -1.18038264      -0.49870602      -3.45829199
H       -3.12217055       1.87576951      -4.37781438
H       -2.96574898       0.99776833      -2.86625635
H       -5.28696696       0.65714915      -2.82712200
H       -5.30052083      -1.30431250      -5.09790679
H       -4.70425518      -0.29143839      -6.40559541
C       -6.96512150       0.51098623      -4.52872025
C       -8.11181503       0.22166336      -4.29245299
Br      -9.96592148      -0.24614725      -3.91042880
C       -1.81695827       1.81695827       1.81695827
H       -2.85310207       1.67057036       1.49583500
N       -1.63598061       1.42330936       3.20801254
C       -2.00689798       2.60667343       3.97899126
C       -1.50810603       3.80879134       3.17428557
H       -2.28666826       4.58387174       3.19609389
C       -1.39663383       3.27591768       1.73629862
C       -0.19493938       4.47202044       3.65654958
H        0.03492423       5.28108130       2.94946180
C        1.03366505       3.56647947       3.76389776
N        1.18072551       3.25293547       5.18232454
C        0.80118340       4.47811885       5.87338378
H        1.65101460       5.16219805       5.96218562
C       -0.33323645       5.08257804       5.06118683
H       -0.64907259       1.20866697       3.34568302
H       -3.10115912       2.64397079       4.05570092
H       -1.62480291       2.55615782       5.00063094
H       -2.07880734       3.82677293       1.07740233
H       -0.38812709       3.41708710       1.33216647
H        1.92486916       4.11531987       3.43376470
H        0.98269707       2.66089926       3.15603482
H        0.52060570       2.52507248       5.45247303
H       -1.32455268       4.89111829       5.48706916
H       -0.21886012       6.17231181       5.01011704
C        0.37166977       4.14713668       7.20738860
C        0.01195210       3.86993912       8.32461763
Br      -0.56968095       3.42173411      10.13108248
C        1.81695827      -1.81695827       1.81695827
H        2.16378003      -1.20217155       2.65355584
N        1.03070463      -2.95015420       2.28644368
C        2.01631854      -3.98300459       2.59323954
C        3.10747259      -3.85564418       1.52806617
H        4.08349903      -3.96157576       2.02155910
C        2.97372550      -2.40816772       1.02695691
C        3.07174213      -4.88211873       0.36964855
H        3.88997892      -4.62154036      -0.31590040
C        1.77567597      -4.96072701      -0.43969080
N        1.06604700      -6.13948960       0.04899790
C        2.11319825      -7.11496221       0.32215877
H        2.37534166      -7.67748501      -0.57945761
C        3.29337838      -6.32225995       0.86136299
H        0.43083899      -3.25271162       1.51987197
H        2.44261816      -3.77515075       3.58306191
H        1.55635283      -4.97146999       2.65376886
H        3.89481364      -1.85105332       1.23711564
H        2.82492428      -2.37028542      -0.05782905
H        2.01323873      -5.11146872      -1.50049203
H        1.15269371      -4.06574927      -0.38420597
H        0.59823938      -5.92912094       0.92957950
H        3.38530633      -6.36498687       1.95244691
H        4.23038824      -6.71909938       0.45180135
C        1.62837179      -8.05944188       1.29504184
C        1.22232964      -8.85044361       2.10983141
Br       0.56579381     -10.12942649       3.42727723
C       -0.00445707       0.01189536      -1.78238275
H       -0.66409135       0.67374010      -2.43557963
H        0.65740317      -0.63156657      -2.45157240
C       -0.90989263      -0.90692880      -0.91072765
C        0.90977584       0.90977584      -0.90977584
C       -0.00465871       1.77757030       0.00794375
H       -0.66225468       2.44313916      -0.64384735
H        0.64322798       2.43503045       0.67728295
C       -1.78241447       0.00034974      -0.00472694
H       -2.45427497      -0.65498947       0.64260836
H       -2.43311707       0.67328779      -0.65473579
C       -0.91132561       0.90220522       0.91563759
C       -0.01476271      -0.02253852       1.78660255
H       -0.67934791      -0.69751639       2.42135241
H        0.63392994       0.61504881       2.47327442
C        0.01484550      -1.77751727      -0.01636693
H        0.67870853      -2.42144646      -0.68295456
H       -0.62264859      -2.45592969       0.64226336
C        1.78714474       0.01002794       0.00389507
H        2.44202412       0.67113390       0.66197326
H        2.45385902      -0.65136977      -0.64189061
C        0.91606151      -0.90478549       0.90901405
