138
Properties=species:S:1:pos:R:3 pbc="F F F"
C        1.81650107       1.81650107      -1.81650107
H        1.17914808       2.60884342      -2.22259195
N        2.89270490       2.37640865      -1.00707532
C        3.93681098       2.71004305      -1.98380707
C        3.89393781       1.59996560      -3.03561651
H        4.04623074       2.02490315      -4.03488669
C        2.48526681       1.01094434      -2.91824642
C        4.92545405       0.57563838      -2.78924974
C        5.76388181      -0.26185257      -2.60124752
C        6.83002180      -1.33992149      -2.38062994
C        7.66052259      -2.19317160      -2.23545633
C        8.67901711      -3.25102456      -2.09440389
H        9.35935424      -3.20176061      -2.95222125
C        8.04958460      -4.63546190      -1.98321726
N        7.72068725      -4.80754094      -0.56170852
C        8.75350231      -4.08174676       0.17591665
H        9.45934911      -4.76674339       0.65532562
C        9.45351185      -3.13031334      -0.78699173
Br       7.87824991      -3.10285566       1.60739049
H        3.23767474       1.62767283      -0.40322839
H        3.68646614       3.67313557      -2.44551701
H        4.91172842       2.82162620      -1.49747066
H        1.93931664       1.14153605      -3.86046924
H        2.51018775      -0.06603819      -2.71082404
H        8.77588154      -5.40588091      -2.26880160
H        7.16177684      -4.76334503      -2.61161160
H        6.84033946      -4.32207473      -0.37474311
H        9.53751331      -2.09719326      -0.43240072
H       10.47308958      -3.50069119      -0.95708683
C       -1.81650107      -1.81650107      -1.81650107
H       -1.75716547      -2.83486025      -1.41855772
N       -3.18635351      -1.31812432      -1.77171104
C       -3.79300144      -1.83147598      -3.00618368
C       -2.69483076      -1.76545536      -4.06923380
H       -2.74159362      -2.65294219      -4.71148476
C       -1.38676411      -1.75465101      -3.27304245
C       -2.82108128      -0.56018059      -4.90908030
C       -2.91644514       0.41491642      -5.60174804
C       -3.02307499       1.65190071      -6.49955598
C       -3.08854220       2.60744061      -7.22170572
C       -3.14909686       3.76319645      -8.13649604
H       -3.36184274       3.40067785      -9.14864999
C       -1.85838842       4.57484347      -8.11379502
N       -1.99480206       5.50346882      -6.98352158
C       -3.41837654       5.82717980      -6.90464216
H       -3.61857342       6.84220140      -7.26090808
C       -4.19359765       4.78460314      -7.70119573
Br      -3.92852195       5.79116292      -5.03064473
H       -3.13928601      -0.29900955      -1.83028040
H       -4.09103036      -2.87405403      -2.84003434
H       -4.69562578      -1.26856268      -3.26663681
H       -0.78323234      -2.63588019      -3.52220940
H       -0.77578034      -0.87364286      -3.50555039
H       -1.76259655       5.16006150      -9.03626719
H       -0.95764035       3.96015622      -8.01255928
H       -1.76767937       4.99850174      -6.12383020
H       -5.03800392       4.33373090      -7.16844775
H       -4.59629932       5.26793759      -8.60112350
C       -1.81650107       1.81650107       1.81650107
H       -1.55288326       2.85709259       1.60060760
N       -3.21680107       1.55730241       1.50208539
C       -3.93791907       1.98568830       2.70705373
C       -3.04603277       1.59610448       3.88738267
H       -3.07244489       2.38166330       4.65191239
C       -1.64075144       1.48448912       3.28921700
C       -3.47242287       0.32239818       4.49552112
C       -3.81289904      -0.71099035       5.00136807
C       -4.23389155      -2.02689278       5.66373148
C       -4.54721169      -3.05009841       6.20569404
C       -4.91466317      -4.29644478       6.90417805
H       -5.23590101      -4.04828030       7.92219416
C       -3.76253640      -5.29502403       6.92982759
N       -3.84188399      -6.02344396       5.65641480
C       -5.26492555      -6.09857070       5.32948405
H       -5.65896718      -7.10734001       5.48565294
C       -6.00650180      -5.06509338       6.16878182
Br      -5.45531454      -5.72087546       3.43356468
H       -3.32168386       0.54585302       1.40103908
H       -4.05758241       3.07557145       2.67196486
H       -4.94003547       1.54552833       2.74526147
H       -0.96910487       2.21331366       3.75890339
H       -1.20363361       0.49265064       3.45868935
H       -3.89931405      -6.01028303       7.74977121
H       -2.78081682      -4.82606641       7.05529300
H       -3.41089398      -5.44752214       4.92963600
H       -6.68280967      -4.41410927       5.60402038
H       -6.61254398      -5.59706910       6.91401033
C        1.81650107      -1.81650107       1.81650107
H        2.07390687      -2.70541638       1.23126020
N        3.01429961      -1.07268953       2.18919973
C        3.48079068      -1.73773210       3.41213832
C        2.21779952      -2.13114871       4.18057169
H        2.34973337      -3.11943285       4.63685436
C        1.11781376      -2.18034951       3.11629429
C        1.89709521      -1.15510472       5.23814224
C        1.62868725      -0.36983838       6.10475113
C        1.27091124       0.61914429       7.21896331
C        0.97302997       1.37320873       8.10298608
C        0.58718236       2.27206394       9.20727803
H        0.68450578       1.72884898      10.15415807
C       -0.82992268       2.80828975       9.03555239
N       -0.70490408       3.98485906       8.16461797
C        0.59154517       4.58022351       8.48451724
H        0.47710381       5.50227150       9.06244779
C        1.42550281       3.54503486       9.22972229
Br       1.43948198       5.08184022       6.81036201
H        2.71917145      -0.12343673       2.42596778
H        4.04101639      -2.63683731       3.12726502
H        4.16037861      -1.09203174       3.97841492
H        0.70217529      -3.19289036       3.04625628
H        0.28456746      -1.50984803       3.36055811
H       -1.23239631       3.13180588      10.00300441
H       -1.52555917       2.07619708       8.61179966
H       -0.64103622       3.66231243       7.19635648
H        2.43694006       3.39916846       8.83494918
H        1.52657236       3.87057968      10.27349254
C       -0.00445707       0.01189536      -1.78238275
H       -0.66409135       0.67374010      -2.43557963
H        0.65740317      -0.63156657      -2.45157240
C       -0.90989263      -0.90692880      -0.91072765
C        0.90977584       0.90977584      -0.90977584
C       -0.00465871       1.77757030       0.00794375
H       -0.66225468       2.44313916      -0.64384735
H        0.64322798       2.43503045       0.67728295
C       -1.78241447       0.00034974      -0.00472694
H       -2.45427497      -0.65498947       0.64260836
H       -2.43311707       0.67328779      -0.65473579
C       -0.91132561       0.90220522       0.91563759
C       -0.01476271      -0.02253852       1.78660255
H       -0.67934791      -0.69751639       2.42135241
H        0.63392994       0.61504881       2.47327442
C        0.01484550      -1.77751727      -0.01636693
H        0.67870853      -2.42144646      -0.68295456
H       -0.62264859      -2.45592969       0.64226336
C        1.78714474       0.01002794       0.00389507
H        2.44202412       0.67113390       0.66197326
H        2.45385902      -0.65136977      -0.64189061
C        0.91606151      -0.90478549       0.90901405
