146
Properties=species:S:1:pos:R:3 pbc="F F F"
C        1.81650107       1.81650107      -1.81650107
H        1.17914808       2.60884342      -2.22259195
N        2.89270490       2.37640865      -1.00707532
C        3.93681098       2.71004305      -1.98380707
C        3.89393781       1.59996560      -3.03561651
H        4.04623074       2.02490315      -4.03488669
C        2.48526681       1.01094434      -2.91824642
C        4.92545405       0.57563838      -2.78924974
C        5.76388181      -0.26185257      -2.60124752
C        6.83002180      -1.33992149      -2.38062994
C        7.66052259      -2.19317160      -2.23545633
C        8.67901711      -3.25102456      -2.09440389
H        9.35935424      -3.20176061      -2.95222125
C        8.04958460      -4.63546190      -1.98321726
N        7.72068725      -4.80754094      -0.56170852
C        8.75350231      -4.08174676       0.17591665
H        9.45934911      -4.76674339       0.65532562
C        9.45351185      -3.13031334      -0.78699173
H        3.23767474       1.62767283      -0.40322839
H        3.68646614       3.67313557      -2.44551701
H        4.91172842       2.82162620      -1.49747066
H        1.93931664       1.14153605      -3.86046924
H        2.51018775      -0.06603819      -2.71082404
H        8.77588154      -5.40588091      -2.26880160
H        7.16177684      -4.76334503      -2.61161160
H        6.84033946      -4.32207473      -0.37474311
H        9.53751331      -2.09719326      -0.43240072
H       10.47308958      -3.50069119      -0.95708683
C        8.10467564      -3.35609247       1.23707159
C        7.56128330      -2.74835701       2.12578886
Br       6.68266386      -1.76570016       3.56276951
C       -1.81650107      -1.81650107      -1.81650107
H       -1.21841934      -2.68711904      -2.10504506
N       -2.99536604      -2.22142067      -1.05940217
C       -3.98501931      -2.55404782      -2.09159396
C       -3.76774276      -1.54289609      -3.21888107
H       -3.87734430      -2.03718364      -4.19149264
C       -2.32791316      -1.05696103      -3.02958337
C       -4.72555451      -0.42470271      -3.14008495
C       -5.50271392       0.48802293      -3.08858577
C       -6.48841512       1.66012484      -3.04243997
C       -7.25305925       2.58429558      -3.03404364
C       -8.18696327       3.72594179      -3.06137496
H       -8.80055447       3.65764032      -3.96690072
C       -7.45398730       5.06191042      -3.00526308
N       -7.22287249       5.32678111      -1.57876344
C       -8.36700480       4.74767060      -0.87650470
H       -9.04782530       5.52310754      -0.51256234
C       -9.06777175       3.77580317      -1.81822166
H       -3.32195539      -1.40015699      -0.54646357
H       -3.78144569      -3.56899944      -2.45467358
H       -5.00058758      -2.54855696      -1.68168073
H       -1.72353943      -1.30811051      -3.90967199
H       -2.27828138       0.03232133      -2.90901355
H       -8.08870859       5.85954479      -3.40963843
H       -6.51258846       5.06742760      -3.56488255
H       -6.40353955       4.79202161      -1.28148990
H       -9.26545130       2.78573278      -1.39300225
H      -10.03639546       4.20842661      -2.10151637
C       -7.86554716       4.06564492       0.28839067
C       -7.44557640       3.49444842       1.26399054
Br      -6.76651918       2.57087198       2.84145301
C       -1.81650107       1.81650107       1.81650107
H       -1.95493768       1.28942714       2.76621862
N       -1.15364267       3.09892040       2.02362581
C       -2.24845831       4.01465574       2.36754705
C       -3.43808285       3.58394534       1.50749174
H       -4.36487571       3.65160200       2.08954286
C       -3.14433836       2.12547687       1.14464233
C       -3.56923022       4.42059456       0.30051740
C       -3.68847058       5.09767271      -0.68286653
C       -3.86007028       5.95306016      -1.94240018
C       -4.02173746       6.61239846      -2.93132860
C       -4.25762819       7.41270733      -4.14793908
H       -5.21248238       7.94031962      -4.04298712
C       -4.25241526       6.55067312      -5.40574842
N       -2.84147769       6.43070522      -5.79732808
C       -2.21248334       7.69200095      -5.40864538
H       -1.99908422       8.31831436      -6.28011848
C       -3.12569593       8.39845631      -4.41396200
H       -0.75953063       3.38408409       1.12496124
H       -2.48874097       3.88621042       3.43016733
H       -1.95124183       5.05851590       2.22106754
H       -3.92701063       1.46955544       1.54475586
H       -3.12428697       1.97214982       0.05853681
H       -4.79664464       7.05525890      -6.21310132
H       -4.70673480       5.56467878      -5.26137017
H       -2.40885492       5.70519014      -5.22103723
H       -2.63084258       8.74014550      -3.49826730
H       -3.55054885       9.28392096      -4.90498459
C       -0.94083426       7.38001297      -4.80933566
C        0.12417183       7.11872304      -4.30741377
Br       1.84619662       6.69623932      -3.49584852
C        1.81650107      -1.81650107       1.81650107
H        2.06665203      -1.23439502       2.70953640
N        1.08063250      -3.02473886       2.17081751
C        2.12970087      -3.99594532       2.50501491
C        3.27650032      -3.72310621       1.52991339
H        4.23862694      -3.82066191       2.04673173
C        3.06180824      -2.27629270       1.07635663
C        3.25182539      -4.65276223       0.38575455
C        3.24437099      -5.40661287      -0.54770710
C        3.25444782      -6.36187554      -1.74559311
C        3.29003092      -7.10180808      -2.68903169
C        3.37138329      -8.00422254      -3.85320939
H        4.29074102      -8.59590089      -3.77682703
C        3.33032634      -7.23790541      -5.17089178
N        1.90550811      -7.03665673      -5.46731002
C        1.21904313      -8.21337486      -4.93657909
H        0.89328120      -8.88261721      -5.73861830
C        2.15362074      -8.91510194      -3.95853244
H        0.59779942      -3.34261436       1.32816218
H        2.46104211      -3.80997319       3.53410342
H        1.74702916      -5.02122518       2.46257093
H        3.91887452      -1.65631792       1.36612949
H        2.96803720      -2.20102866      -0.01409226
H        3.77171329      -7.84072459      -5.97363564
H        3.86484456      -6.28260182      -5.13740298
H        1.57303833      -6.23965307      -4.91968356
H        1.70843644      -9.14973619      -2.98545185
H        2.47343602      -9.86435199      -4.40830279
C        0.02414750      -7.76024388      -4.27287981
C       -0.97657759      -7.38074668      -3.71703165
Br      -2.59466543      -6.76713181      -2.81827220
C       -0.00445707       0.01189536      -1.78238275
H       -0.66409135       0.67374010      -2.43557963
H        0.65740317      -0.63156657      -2.45157240
C       -0.90989263      -0.90692880      -0.91072765
C        0.90977584       0.90977584      -0.90977584
C       -0.00465871       1.77757030       0.00794375
H       -0.66225468       2.44313916      -0.64384735
H        0.64322798       2.43503045       0.67728295
C       -1.78241447       0.00034974      -0.00472694
H       -2.45427497      -0.65498947       0.64260836
H       -2.43311707       0.67328779      -0.65473579
C       -0.91132561       0.90220522       0.91563759
C       -0.01476271      -0.02253852       1.78660255
H       -0.67934791      -0.69751639       2.42135241
H        0.63392994       0.61504881       2.47327442
C        0.01484550      -1.77751727      -0.01636693
H        0.67870853      -2.42144646      -0.68295456
H       -0.62264859      -2.45592969       0.64226336
C        1.78714474       0.01002794       0.00389507
H        2.44202412       0.67113390       0.66197326
H        2.45385902      -0.65136977      -0.64189061
C        0.91606151      -0.90478549       0.90901405
