154
Properties=species:S:1:pos:R:3 pbc="F F F"
C        1.83394833       1.83394833      -1.83394833
H        2.28528969       1.12605276      -2.53807641
C        2.89515136       2.47989312      -0.97117560
C        2.57381779       3.40307446       0.04054695
C        3.57991154       4.00935668       0.79577288
C        4.90854365       3.70180211       0.53967260
C        5.25341490       2.79574800      -0.45391715
C        4.24925762       2.18347297      -1.20699254
F        5.87360309       4.29007391       1.25916929
C        0.94546186       2.82144342      -2.59908299
C        1.74155261       3.63888896      -3.63006732
C        0.84471762       4.58619285      -4.43467495
H        0.10191677       4.00306892      -4.99035845
C        0.17268134       5.66850216      -3.61845240
C       -1.22997506       5.76275533      -3.62106584
C       -1.87947983       6.72584289      -2.84729479
C       -1.13054334       7.60118195      -2.07108613
C        0.25535027       7.53182999      -2.05360158
C        0.90725699       6.56648810      -2.82290266
F       -1.75625871       8.52279140      -1.32737866
Br       1.91692832       5.43587898      -5.84376032
H        1.53734710       3.65544553       0.25297088
H        3.33334290       4.71788407       1.58050942
H        6.29938925       2.57215314      -0.63794090
H        4.53487834       1.47762348      -1.98501578
H        0.15643543       2.26927081      -3.12729444
H        0.43191205       3.49375338      -1.90067172
H        2.24205665       2.94159914      -4.31449960
H        2.53932646       4.20039841      -3.12949625
H       -1.82982061       5.08213553      -4.22213464
H       -2.96276558       6.79779249      -2.84424301
H        0.82044644       8.22870580      -1.44292596
H        1.99493949       6.52651272      -2.79896561
C       -1.83394833      -1.83394833      -1.83394833
H       -1.29184371      -2.78541233      -1.87216283
C       -1.92237972      -1.21336428      -3.21047608
C       -2.53926295       0.03194391      -3.42902626
C       -2.63666376       0.56093469      -4.71776628
C       -2.12541501      -0.15323642      -5.79202173
C       -1.51338713      -1.38506311      -5.60462981
C       -1.40934649      -1.91403856      -4.31633807
F       -2.22655709       0.35117279      -7.02912341
C       -3.18480061      -2.04156007      -1.13962760
C       -4.07254876      -3.04972468      -1.88823546
C       -5.40028177      -3.30048682      -1.16481684
H       -5.20261467      -3.72044965      -0.17227983
C       -6.30468507      -2.09178180      -1.06316902
C       -6.71514429      -1.64298809       0.20428627
C       -7.51723322      -0.50781716       0.33139253
C       -7.91589498       0.18118443      -0.80701418
C       -7.52773978      -0.24301180      -2.07003026
C       -6.72164714      -1.37530756      -2.19969305
F       -8.68340317       1.27175950      -0.68226768
Br      -6.37009334      -4.73506626      -2.09140802
H       -2.94571718       0.60360948      -2.59771405
H       -3.10757265       1.52429993      -4.88744483
H       -1.12263259      -1.92678588      -6.46006482
H       -0.92987410      -2.88254523      -4.18509826
H       -3.01794366      -2.41487144      -0.12018559
H       -3.71009042      -1.08451133      -1.03173539
H       -3.52290317      -3.99561024      -1.97964198
H       -4.25448314      -2.70247771      -2.91226027
H       -6.40843490      -2.17107547       1.10506081
H       -7.83190361      -0.15671951       1.30935320
H       -7.85451582       0.30832981      -2.94589220
H       -6.42723735      -1.69546679      -3.19771367
C       -1.83394833       1.83394833       1.83394833
H       -2.48010830       1.11684439       2.35246617
C       -2.65174599       2.74685561       0.94761848
C       -2.05612054       3.73613494       0.14408981
C       -2.84202432       4.58722918      -0.63575815
C       -4.22341739       4.45842996      -0.61117420
C       -4.83696214       3.49200482       0.17411309
C       -4.05342320       2.63563505       0.95066487
F       -4.97713226       5.28072482      -1.35334937
C       -0.95087118       2.55962117       2.85549593
C       -1.78061526       3.34509922       3.88479441
C       -0.90089614       4.02484392       4.93984536
H       -0.33854515       3.26411763       5.49268137
C        0.02891237       5.08910983       4.39943843
C        1.41391510       4.96293698       4.60482423
C        2.29907813       5.90832965       4.08440633
C        1.80420907       6.98558235       3.36035145
C        0.44126451       7.13551474       3.14653161
C       -0.44585679       6.18888887       3.66190209
F        2.65585125       7.89004612       2.85971648
Br      -2.05533275       4.83407850       6.30715637
H       -0.97485607       3.85048868       0.11447700
H       -2.38365644       5.34760098      -1.26053987
H       -5.91925195       3.41110161       0.17912974
H       -4.54860796       1.88485602       1.56405361
H       -0.33485642       1.82568558       3.39245869
H       -0.24949128       3.23145955       2.34538631
H       -2.47040533       2.64866050       4.37908956
H       -2.40823560       4.08582449       3.37516104
H        1.81622173       4.12292867       5.16774262
H        3.36940491       5.81074015       4.23793467
H        0.07664110       7.98731906       2.58140024
H       -1.51200121       6.32207545       3.48634115
C        1.83394833      -1.83394833       1.83394833
H        1.45275556      -2.84494146       1.65172185
C        1.62915494      -1.43781118       3.27925396
C        2.00031156      -0.17084260       3.76519114
C        1.83125958       0.15123455       5.11347031
C        1.29818505      -0.79107507       5.98141303
C        0.92527248      -2.04923387       5.52857370
C        1.08777231      -2.37228931       4.17966151
F        1.14392262      -0.48415096       7.27643413
C        3.28365524      -1.73724467       1.34508836
C        4.21016113      -2.72015909       2.08018867
C        5.64828840      -2.66411936       1.55317766
H        5.66067554      -2.94144695       0.49322166
C        6.35069044      -1.34129046       1.76765500
C        6.85497086      -0.64102310       0.65785215
C        7.47282077       0.59988417       0.82072125
C        7.59310619       1.14437736       2.09299591
C        7.10725832       0.47195382       3.20547734
C        6.48467732      -0.76711266       3.04485777
F        8.18404896       2.33653474       2.24639713
Br       6.69920962      -4.08105185       2.41630615
H        2.42033585       0.57843307       3.09791897
H        2.11213568       1.13038276       5.48896463
H        0.51240303      -2.77097512       6.22610515
H        0.79402942      -3.36386107       3.83962710
H        3.32233713      -1.96036983       0.27029373
H        3.65717924      -0.71186549       1.45729241
H        3.81332211      -3.73534443       1.94948885
H        4.18978779      -2.52115015       3.15828318
H        6.76556657      -1.05394757      -0.34506457
H        7.85915216       1.14462441      -0.03525783
H        7.21596548       0.91440831       4.19052104
H        6.11035955      -1.28205655       3.92800171
C       -0.00445707       0.01189536      -1.78238275
H       -0.66409135       0.67374010      -2.43557963
H        0.65740317      -0.63156657      -2.45157240
C       -0.90989263      -0.90692880      -0.91072765
C        0.90977584       0.90977584      -0.90977584
C       -0.00465871       1.77757030       0.00794375
H       -0.66225468       2.44313916      -0.64384735
H        0.64322798       2.43503045       0.67728295
C       -1.78241447       0.00034974      -0.00472694
H       -2.45427497      -0.65498947       0.64260836
H       -2.43311707       0.67328779      -0.65473579
C       -0.91132561       0.90220522       0.91563759
C       -0.01476271      -0.02253852       1.78660255
H       -0.67934791      -0.69751639       2.42135241
H        0.63392994       0.61504881       2.47327442
C        0.01484550      -1.77751727      -0.01636693
H        0.67870853      -2.42144646      -0.68295456
H       -0.62264859      -2.45592969       0.64226336
C        1.78714474       0.01002794       0.00389507
H        2.44202412       0.67113390       0.66197326
H        2.45385902      -0.65136977      -0.64189061
C        0.91606151      -0.90478549       0.90901405
