162
Properties=species:S:1:pos:R:3 pbc="F F F"
C        1.83394833       1.83394833      -1.83394833
H        2.28528969       1.12605276      -2.53807641
C        2.89515136       2.47989312      -0.97117560
C        2.57381779       3.40307446       0.04054695
C        3.57991154       4.00935668       0.79577288
C        4.90854365       3.70180211       0.53967260
C        5.25341490       2.79574800      -0.45391715
C        4.24925762       2.18347297      -1.20699254
F        5.87360309       4.29007391       1.25916929
C        0.94546186       2.82144342      -2.59908299
C        1.74155261       3.63888896      -3.63006732
C        0.84471762       4.58619285      -4.43467495
H        0.10191677       4.00306892      -4.99035845
C        0.17268134       5.66850216      -3.61845240
C       -1.22997506       5.76275533      -3.62106584
C       -1.87947983       6.72584289      -2.84729479
C       -1.13054334       7.60118195      -2.07108613
C        0.25535027       7.53182999      -2.05360158
C        0.90725699       6.56648810      -2.82290266
F       -1.75625871       8.52279140      -1.32737866
H        1.53734710       3.65544553       0.25297088
H        3.33334290       4.71788407       1.58050942
H        6.29938925       2.57215314      -0.63794090
H        4.53487834       1.47762348      -1.98501578
H        0.15643543       2.26927081      -3.12729444
H        0.43191205       3.49375338      -1.90067172
H        2.24205665       2.94159914      -4.31449960
H        2.53932646       4.20039841      -3.12949625
H       -1.82982061       5.08213553      -4.22213464
H       -2.96276558       6.79779249      -2.84424301
H        0.82044644       8.22870580      -1.44292596
H        1.99493949       6.52651272      -2.79896561
C        1.63087742       5.20919454      -5.46783595
C        2.28928626       5.73095846      -6.33310829
Br       3.35387767       6.57460658      -7.73218048
C       -1.83394833      -1.83394833      -1.83394833
H       -1.44851357      -2.84421601      -1.65668928
C       -1.63572627      -1.43194389      -3.27854992
C       -2.01311978      -0.16458780      -3.75863771
C       -1.85002886       0.16288484      -5.10635133
C       -1.31670758      -0.77442234      -5.97954323
C       -0.93770764      -2.03284475      -5.53252766
C       -1.09424075      -2.36127454      -4.18420784
F       -1.16816199      -0.46234479      -7.27400094
C       -3.28223565      -1.74416017      -1.33959245
C       -4.20785758      -2.72775474      -2.07489657
C       -5.64428456      -2.67872437      -1.54257649
H       -5.65190110      -2.95986313      -0.48357992
C       -6.35214890      -1.35765683      -1.74983016
C       -6.85495203      -0.66314638      -0.63574770
C       -7.47778966       0.57611883      -0.79198701
C       -7.60455232       1.12470143      -2.06187385
C       -7.12029011       0.45797817      -3.17846989
C       -6.49273603      -0.77942138      -3.02449034
F       -8.20027595       2.31527974      -2.20891514
H       -2.43342196       0.58080529      -3.08720508
H       -2.13572488       1.14235362      -5.47734629
H       -0.52476616      -2.75062167      -6.23409546
H       -0.79576049      -3.35299465      -3.84876245
H       -3.31628644      -1.97124385      -0.26547040
H       -3.65980294      -0.71972832      -1.44680588
H       -3.80694580      -3.74197544      -1.94923414
H       -4.19204110      -2.52484061      -3.15233941
H       -6.76049971      -1.07931402       0.36536416
H       -7.86299815       1.11642810       0.06730013
H       -7.23408629       0.90354296      -4.16153487
H       -6.11974399      -1.28988094      -3.91079288
C       -6.41338845      -3.71812538      -2.17639409
C       -7.05751295      -4.58862373      -2.70721633
Br      -8.09900780      -5.99614593      -3.56551099
C       -1.83394833       1.83394833       1.83394833
H       -2.39372469       1.11415392       2.44154025
C       -2.76897389       2.62808476       0.94916143
C       -2.29690538       3.59574953       0.04369039
C       -3.18897672       4.33781767      -0.73329905
C       -4.55357419       4.12163598      -0.60453702
C       -5.04625205       3.17429194       0.28253605
C       -4.15638246       2.42658975       1.05675091
F       -5.40915695       4.83974082      -1.34439006
C       -0.93894959       2.68459942       2.74243926
C       -1.75266564       3.48413564       3.77370760
C       -0.85564546       4.29117518       4.71876478
H       -0.20712646       3.60878942       5.27942827
C       -0.03903402       5.37345243       4.04714945
C        1.36179130       5.35202083       4.16361659
C        2.14351197       6.31445309       3.52271673
C        1.52907404       7.30442249       2.76637629
C        0.14800957       7.35035224       2.63843917
C       -0.63590252       6.38621474       3.27453050
F        2.28155210       8.22530898       2.15015447
H       -1.23040071       3.77771913      -0.06829809
H       -2.82604482       5.08111421      -1.43644147
H       -6.11769698       3.02384679       0.36793952
H       -4.55737026       1.68966142       1.75048592
H       -0.23990067       2.03126434       3.28183568
H       -0.32051415       3.36350175       2.14232125
H       -2.35888201       2.78039852       4.35887486
H       -2.46196500       4.14537413       3.26188198
H        1.85715079       4.58102297       4.75057739
H        3.22573508       6.29744712       3.60755788
H       -0.31080016       8.13538522       2.04589283
H       -1.71786442       6.43739807       3.16515532
C       -1.67438581       4.89650228       5.73701983
C       -2.36008085       5.40346372       6.58980843
Br      -3.46879174       6.22317750       7.96869548
C        1.83394833      -1.83394833       1.83394833
H        1.53527715      -2.85242975       1.56171197
C        1.51041504      -1.55156121       3.28424383
C        1.76213410      -0.29965466       3.87455653
C        1.48546460      -0.08207429       5.22595646
C        0.96364346      -1.11375648       5.99327322
C        0.70745428      -2.35926915       5.43635661
C        0.97770793      -2.57819970       4.08381550
F        0.70614511      -0.90667138       7.29169122
C        3.30195835      -1.61140279       1.45262713
C        4.24457869      -2.58097206       2.18495814
C        5.70628507      -2.39704242       1.76225794
H        5.80545729      -2.59982910       0.69005777
C        6.30134989      -1.04973880       2.10854721
C        6.82655041      -0.24432807       1.08296763
C        7.34634485       1.01953226       1.36684526
C        7.34738693       1.48227536       2.67661317
C        6.83846115       0.70558279       3.70790347
C        6.31368646      -0.55690168       3.42605961
F        7.84433453       2.69652543       2.94610225
H        2.17176291       0.51887407       3.28693291
H        1.67406559       0.88505523       5.68170720
H        0.30112743      -3.15199703       6.05635883
H        0.77487653      -3.56094825       3.66169281
H        3.42455085      -1.75752669       0.37092315
H        3.59649332      -0.57429832       1.65554551
H        3.92731798      -3.60815471       1.96268270
H        4.14165306      -2.45791186       3.26965620
H        6.83000539      -0.59253506       0.05190912
H        7.74850628       1.64518067       0.57594431
H        6.85334782       1.08564867       4.72437906
H        5.91970775      -1.15397444       4.24673562
C        6.50401369      -3.42535457       2.37853966
C        7.17211142      -4.28656600       2.89467560
Br       8.25236893      -5.67907204       3.72922376
C       -0.00445707       0.01189536      -1.78238275
H       -0.66409135       0.67374010      -2.43557963
H        0.65740317      -0.63156657      -2.45157240
C       -0.90989263      -0.90692880      -0.91072765
C        0.90977584       0.90977584      -0.90977584
C       -0.00465871       1.77757030       0.00794375
H       -0.66225468       2.44313916      -0.64384735
H        0.64322798       2.43503045       0.67728295
C       -1.78241447       0.00034974      -0.00472694
H       -2.45427497      -0.65498947       0.64260836
H       -2.43311707       0.67328779      -0.65473579
C       -0.91132561       0.90220522       0.91563759
C       -0.01476271      -0.02253852       1.78660255
H       -0.67934791      -0.69751639       2.42135241
H        0.63392994       0.61504881       2.47327442
C        0.01484550      -1.77751727      -0.01636693
H        0.67870853      -2.42144646      -0.68295456
H       -0.62264859      -2.45592969       0.64226336
C        1.78714474       0.01002794       0.00389507
H        2.44202412       0.67113390       0.66197326
H        2.45385902      -0.65136977      -0.64189061
C        0.91606151      -0.90478549       0.90901405
