178
Properties=species:S:1:pos:R:3 pbc="F F F"
C        1.83627910       1.83627910      -1.83627910
H        2.73472860       1.22613239      -1.99180781
C        2.18455414       3.09228080      -1.06198710
C        1.20929058       4.03719164      -0.69380099
C        1.56619945       5.19486551       0.00084570
C        2.89773242       5.41775313       0.32642939
C        3.88042629       4.50324111      -0.02806072
C        3.52592116       3.34315880      -0.71939461
F        3.23841046       6.53014462       0.98976711
C        1.13127748       2.06866671      -3.17978926
C        1.99207723       2.74615502      -4.12061366
C        2.70157130       3.30455075      -4.89605355
C        3.51707621       3.94637541      -5.78736506
C        4.22656162       4.50477598      -6.56280366
C        5.08737003       5.18225945      -7.50362935
C        6.49918504       4.57458368      -7.52442331
H        6.43619118       3.48395414      -7.62583671
C        7.41009039       5.14628358      -8.59138702
C        8.01234800       4.28302474      -9.52409344
C        8.87860840       4.78131531     -10.49935333
C        9.14907646       6.14243508     -10.54630380
C        8.56491869       7.01722236      -9.64034600
C        7.69406879       6.52275425      -8.66743707
F        9.98857962       6.61714048     -11.47545757
H        0.16091440       3.87876435      -0.93843654
H        0.81476115       5.92275699       0.28921592
H        4.91557478       4.69937001       0.23279165
H        4.30881471       2.63895321      -0.99535310
H        0.82919459       1.10350285      -3.60638244
H        0.20428734       2.63873182      -3.04291616
H        5.12830630       6.25031814      -7.25701989
H        4.65184423       5.11520217      -8.50850102
H        7.82050556       3.21204738      -9.49237351
H        9.34975514       4.11592386     -11.21587597
H        8.79819652       8.07602836      -9.68934695
H        7.26081438       7.22063870      -7.95303644
C        7.15439975       4.75915497      -6.25547606
C        7.70314207       4.91373343      -5.19273273
Br       8.59041198       5.16367372      -3.47436666
C       -1.83627910      -1.83627910      -1.83627910
H       -1.14131715      -2.21556753      -2.59578412
C       -2.89264249      -0.96255160      -2.48362793
C       -3.89144306      -0.31715145      -1.73168870
C       -4.86321842       0.46383976      -2.36084060
C       -4.84631859       0.60006561      -3.74280319
C       -3.87402774      -0.02895926      -4.50874112
C       -2.89903888      -0.80742649      -3.88200920
F       -5.78105550       1.34682589      -4.34455835
C       -2.37480305      -3.00516335      -0.99976705
C       -3.06918293      -3.96935777      -1.82030521
C       -3.64149931      -4.76406126      -2.49661504
C       -4.29932588      -5.67751524      -3.27397555
C       -4.87164798      -6.47221542      -3.95027787
C       -5.56602214      -7.43641315      -4.77082354
C       -4.78148364      -7.76563683      -6.05107156
H       -3.74015789      -8.00443551      -5.80138864
C       -5.38571441      -8.87566626      -6.88638032
C       -4.60809759     -10.00214580      -7.20922277
C       -5.13204855     -11.02547556      -8.00175293
C       -6.43301100     -10.92771568      -8.47708866
C       -7.22368489      -9.82869289      -8.17010926
C       -6.70447617      -8.80640366      -7.37338027
F       -6.93021552     -11.90493779      -9.24602437
H       -3.91955828      -0.41061738      -0.64793964
H       -5.63188738       0.96567574      -1.78209057
H       -3.88199454       0.08764795      -5.58780655
H       -2.14722425      -1.29890111      -4.49699566
H       -1.54088408      -3.50644125      -0.49175455
H       -3.03747975      -2.64505638      -0.20339920
H       -6.56512262      -7.05525052      -5.01527118
H       -5.72074108      -8.35839788      -4.19640846
H       -3.58240926     -10.08752127      -6.85499592
H       -4.53133443     -11.89251757      -8.25770297
H       -8.23454651      -9.76849924      -8.56052607
H       -7.33209166      -7.94302711      -7.15937076
C       -4.66931019      -6.60445243      -6.89526816
C       -4.57536492      -5.63196049      -7.60228281
Br      -4.42346337      -4.05952328      -8.74546571
C       -1.83627910       1.83627910       1.83627910
H       -2.01742527       1.21384329       2.72140024
C       -3.13820499       2.09628666       1.10433039
C       -3.18853619       2.84042822      -0.08868120
C       -4.40709995       3.08030517      -0.72718585
C       -5.58106982       2.58383353      -0.17584719
C       -5.55987867       1.84954168       1.00230777
C       -4.34254371       1.60507761       1.64085325
F       -6.74901911       2.81772805      -0.78795919
C       -1.04918275       3.09075191       2.23979879
C       -1.76618060       3.87561332       3.21705200
C       -2.35714829       4.52250324       4.02252407
C       -3.03641116       5.26605094       4.94835458
C       -3.62737637       5.91294628       5.75381861
C       -4.34437670       6.69780227       6.73107986
C       -4.92784836       5.82020122       7.85014245
H       -4.15323550       5.14981515       8.24293138
C       -5.57000445       6.59568797       8.98206858
C       -5.12549317       6.39310195      10.30087104
C       -5.72026798       7.07391716      11.36509189
C       -6.76229953       7.95768100      11.11783480
C       -7.21783314       8.17933960       9.82531431
C       -6.62153793       7.50420401       8.75851816
F       -7.33878040       8.60156910      12.14082817
H       -2.27901912       3.23566596      -0.53656978
H       -4.44733546       3.65055934      -1.64959259
H       -6.48971982       1.47447630       1.41795702
H       -4.34338698       1.03284910       2.56688495
H       -0.08085271       2.79475450       2.66347266
H       -0.81642057       3.70681651       1.36269824
H       -5.13755999       7.26705615       6.23102820
H       -3.66532236       7.43855059       7.17167447
H       -4.31838895       5.69408855      10.51244895
H       -5.38324725       6.91392691      12.38438080
H       -8.04013736       8.86717995       9.65625452
H       -7.00489665       7.67547616       7.75411671
C       -5.92217541       4.91904449       7.32781087
C       -6.75492431       4.16432573       6.89035818
Br      -8.10140886       2.94400934       6.18303416
C        1.83627910      -1.83627910       1.83627910
H        2.07332192      -2.69004322       1.18930366
C        1.01753618      -2.29398745       3.02729840
C        0.54658848      -1.39340396       4.00029078
C       -0.18709186      -1.85007313       5.09723799
C       -0.44951812      -3.20720419       5.23137009
C        0.00658752      -4.11760423       4.28753636
C        0.73722487      -3.66337228       3.18787742
F       -1.15050085      -3.64352944       6.28575938
C        3.12449220      -1.07558751       2.17965374
C        4.07472279      -1.92200135       2.86212178
C        4.85791596      -2.61963838       3.42462126
C        5.75813950      -3.42151392       4.07116325
C        6.54133066      -4.11914266       4.63366794
C        7.49156326      -4.96556479       5.31613077
C        7.62263767      -6.33841411       4.63714025
H        7.77761399      -6.20972023       3.55864782
C        8.70698353      -7.22227973       5.21849774
C        9.71579520      -7.72579416       4.37787681
C       10.71008779      -8.56589272       4.88329653
C       10.70033437      -8.90866808       6.22881289
C        9.71859158      -8.42243380       7.08146167
C        8.72618723      -7.57784776       6.58022511
F       11.64841068      -9.72320309       6.70956390
H        0.74063430      -0.32643644       3.91104456
H       -0.55461753      -1.15641308       5.84650666
H       -0.20634479      -5.17432884       4.41416909
H        1.09287587      -4.39036323       2.45988193
H        3.58382360      -0.69836899       1.25688728
H        2.90657374      -0.19015990       2.78920169
H        7.19177848      -5.07864856       6.36521729
H        8.47283876      -4.47474423       5.32796443
H        9.72984094      -7.47672171       3.31836381
H       11.48566352      -8.96103502       4.23485642
H        9.72471684      -8.71123573       8.12761926
H        7.95312222      -7.22217922       7.25918809
C        6.38407672      -7.06869255       4.71626151
C        5.34678192      -7.68030074       4.78252557
Br       3.66956396      -8.66921945       4.88966895
C       -0.00445707       0.01189536      -1.78238275
H       -0.66409135       0.67374010      -2.43557963
H        0.65740317      -0.63156657      -2.45157240
C       -0.90989263      -0.90692880      -0.91072765
C        0.90977584       0.90977584      -0.90977584
C       -0.00465871       1.77757030       0.00794375
H       -0.66225468       2.44313916      -0.64384735
H        0.64322798       2.43503045       0.67728295
C       -1.78241447       0.00034974      -0.00472694
H       -2.45427497      -0.65498947       0.64260836
H       -2.43311707       0.67328779      -0.65473579
C       -0.91132561       0.90220522       0.91563759
C       -0.01476271      -0.02253852       1.78660255
H       -0.67934791      -0.69751639       2.42135241
H        0.63392994       0.61504881       2.47327442
C        0.01484550      -1.77751727      -0.01636693
H        0.67870853      -2.42144646      -0.68295456
H       -0.62264859      -2.45592969       0.64226336
C        1.78714474       0.01002794       0.00389507
H        2.44202412       0.67113390       0.66197326
H        2.45385902      -0.65136977      -0.64189061
C        0.91606151      -0.90478549       0.90901405
