162
Properties=species:S:1:pos:R:3 pbc="F F F"
C        1.83078677       1.83078677      -1.83078677
C        3.22009498       2.05533559      -1.20546560
H        3.05055253       2.44483193      -0.19133536
C        4.07879812       3.11819784      -1.98634211
H        4.33439011       2.68774903      -2.96532133
C        5.38809538       3.40934188      -1.24252112
C        5.40144237       4.05561921       0.00655915
C        6.60921289       4.32266804       0.65369489
C        7.80604707       3.94203581       0.05997426
C        7.81897372       3.29632647      -1.16847183
C        6.61318955       3.02918181      -1.81931034
F        8.96305280       4.20297090       0.68240198
C        3.30778992       4.42261296      -2.26416951
C        3.97631660       0.72693959      -1.07958523
C        4.38371900       0.27817805       0.18962684
C        5.04311755      -0.94327221       0.33392675
C        5.30168977      -1.71937736      -0.78740714
C        4.92027676      -1.29343818      -2.05322737
C        4.26139969      -0.07130625      -2.20209967
F        5.92519412      -2.89623587      -0.64783918
H        1.25408285       2.75517832      -1.90265511
H        1.86720600       1.35618722      -2.81507994
H        4.47652027       4.36250295       0.48822939
H        6.62550619       4.82705735       1.61483663
H        8.76527467       3.00766847      -1.61379314
H        6.63889726       2.52403831      -2.78233562
H        2.38713198       4.24701581      -2.82422387
H        3.07181467       4.99014698      -1.36007179
H        4.18385380       0.87374180       1.07770345
H        5.35120969      -1.29491566       1.31343052
H        5.13336944      -1.91844699      -2.91478477
H        3.96854870       0.24154646      -3.20078809
C        4.04589543       5.30579876      -3.12949205
C        4.66405880       6.04546687      -3.85419967
Br       5.66357668       7.24144764      -5.02599061
C       -1.83078677      -1.83078677      -1.83078677
C       -3.30207174      -1.37678199      -1.80204244
H       -3.60085311      -1.34136261      -0.74450410
C       -4.26717714      -2.38001970      -2.53614123
H       -4.03578858      -2.34129893      -3.61037295
C       -5.72998262      -1.95700273      -2.35297302
C       -6.35936659      -1.99532674      -1.09580910
C       -7.69718095      -1.61995876      -0.96104634
C       -8.40942178      -1.20096820      -2.07771864
C       -7.80880610      -1.14722338      -3.32774254
C       -6.47163435      -1.52348594      -3.46656142
F       -9.69382144      -0.84477041      -1.94502988
C       -4.06217653      -3.84069912      -2.09169675
C       -3.44175019       0.03756048      -2.37865171
C       -3.96426724       1.06620406      -1.57420703
C       -4.06958071       2.36844015      -2.06477803
C       -3.65765855       2.64831647      -3.36037746
C       -3.14914000       1.64812352      -4.17904947
C       -3.04327915       0.34354878      -3.69246274
F       -3.74904139       3.89992078      -3.82767682
H       -1.69429295      -2.82261345      -1.39500989
H       -1.38983367      -1.81745936      -2.83118013
H       -5.82061604      -2.32068417      -0.20949362
H       -8.18963299      -1.65390143       0.00580751
H       -8.38380687      -0.81659542      -4.18633399
H       -6.01471066      -1.47790013      -4.45266040
H       -3.03526943      -4.17871223      -2.24439002
H       -4.34636646      -4.02365119      -1.05201579
H       -4.28684899       0.86246240      -0.55550556
H       -4.46515631       3.16511953      -1.44282673
H       -2.83324341       1.89205663      -5.18852044
H       -2.63945183      -0.42321947      -4.34821195
C       -4.82474329      -4.75714119      -2.89930176
C       -5.46339296      -5.52466142      -3.57567096
Br      -6.49603546      -6.76567672      -4.66930275
C       -1.83078677       1.83078677       1.83078677
C       -1.22044052       3.23059917       2.02985647
H       -0.19941327       3.07880315       2.40850340
C       -1.99876131       4.09288225       3.09169451
H       -2.98625458       4.33063447       2.67057141
C       -1.26807719       5.41503560       3.35684559
C       -0.01123736       5.45232656       3.98693851
C        0.62376732       6.67144623       4.23050714
C        0.01010638       7.85577075       3.84244425
C       -1.22643015       7.84501602       3.21232586
C       -1.86516351       6.62783459       2.96868360
F        0.62097682       9.02374506       4.08085349
C       -2.25031295       3.33512061       4.40913884
C       -1.12092486       3.97135969       0.69055687
C        0.13724842       4.38894567       0.22057297
C        0.25775950       5.03449281      -1.01081472
C       -0.87645177       5.26903047      -1.77576269
C       -2.13185194       4.87718164      -1.32896762
C       -2.25693273       4.23210706      -0.09684669
F       -0.75965366       5.87919773      -2.96205396
H       -1.88366822       1.26504772       2.76320035
H       -2.82135634       1.84877204       1.36834478
H        0.48599934       4.53752147       4.29927171
H        1.59089236       6.70625331       4.72236596
H       -1.68736685       8.78188598       2.91748345
H       -2.83471636       6.63498848       2.47556634
H       -2.80075753       2.40532801       4.25228613
H       -1.33621462       3.11778645       4.96803238
H        1.03522077       4.20787132       0.80724160
H        1.22875778       5.35037733      -1.37875603
H       -3.00384824       5.07143982      -1.94558084
H       -3.24779473       3.93072573       0.23236279
C       -3.11379006       4.07347408       5.29392210
C       -3.83695215       4.69184512       6.03492807
Br      -5.00624408       5.69169878       7.23307207
C        1.83078677      -1.83078677       1.83078677
C        1.79626261      -1.38129955       3.30333401
H        2.05923713      -0.31375631       3.31372638
C        2.84485569      -2.13872591       4.19975648
H        2.52631641      -3.18860656       4.27253749
C        2.86908945      -1.55360182       5.61726710
C        3.32971752      -0.24928528       5.87149963
C        3.35598091       0.25194208       7.17414722
C        2.91880502      -0.54356807       8.22573553
C        2.45268861      -1.83117283       7.99991058
C        2.42660270      -2.33632634       6.69875265
F        2.94864277      -0.06033820       9.47464075
C        4.25902356      -2.14669840       3.58885043
C        0.38136091      -1.52353867       3.87794184
C       -0.28494173      -0.38692213       4.37028982
C       -1.58552493      -0.48466710       4.86677642
C       -2.22445722      -1.71683691       4.87733985
C       -1.58421096      -2.85648893       4.40778800
C       -0.28238786      -2.76322762       3.91135335
F       -3.47619907      -1.80884955       5.34414695
H        2.81932333      -1.70935818       1.38323478
H        1.49619122      -2.86089783       1.68138411
H        3.67691815       0.38948377       5.06335945
H        3.71666452       1.25561377       7.37667616
H        2.11577330      -2.43496293       8.83600005
H        2.06034048      -3.34775734       6.53717337
H        4.27573841      -2.59099337       2.59163989
H        4.72029237      -1.15649561       3.54524546
H        0.20171301       0.58593519       4.36411433
H       -2.10419620       0.39273681       5.23979652
H       -2.10508525      -3.80868643       4.42610604
H        0.19896282      -3.66630721       3.54561322
C        5.15734566      -2.99223524       4.33160535
C        5.90969041      -3.70037234       4.95366258
Br       7.12616826      -4.84537015       5.95947653
C       -0.00445707       0.01189536      -1.78238275
H       -0.66409135       0.67374010      -2.43557963
H        0.65740317      -0.63156657      -2.45157240
C       -0.90989263      -0.90692880      -0.91072765
C        0.90977584       0.90977584      -0.90977584
C       -0.00465871       1.77757030       0.00794375
H       -0.66225468       2.44313916      -0.64384735
H        0.64322798       2.43503045       0.67728295
C       -1.78241447       0.00034974      -0.00472694
H       -2.45427497      -0.65498947       0.64260836
H       -2.43311707       0.67328779      -0.65473579
C       -0.91132561       0.90220522       0.91563759
C       -0.01476271      -0.02253852       1.78660255
H       -0.67934791      -0.69751639       2.42135241
H        0.63392994       0.61504881       2.47327442
C        0.01484550      -1.77751727      -0.01636693
H        0.67870853      -2.42144646      -0.68295456
H       -0.62264859      -2.45592969       0.64226336
C        1.78714474       0.01002794       0.00389507
H        2.44202412       0.67113390       0.66197326
H        2.45385902      -0.65136977      -0.64189061
C        0.91606151      -0.90478549       0.90901405
