122
Properties=species:S:1:pos:R:3 pbc="F F F"
C        1.83350355       1.83350355      -1.83350355
N        1.82201339       3.14107978      -1.20224765
C        2.65396526       4.09130131      -1.80401533
C        2.41035371       5.45323465      -1.58126463
C        3.27033955       6.43028276      -2.08684419
C        4.40224221       6.04613669      -2.79591797
Br       5.58215565       7.36050405      -3.46838277
C        4.68399748       4.69626988      -2.99270986
C        3.81898438       3.70821912      -2.48696575
C        4.18026353       2.25235337      -2.64462777
C        4.11048465       1.74615148      -4.06129969
C        3.64875989       0.49195682      -4.11225442
C        3.32236358      -0.02215279      -2.74772490
C        3.25041837       1.26454683      -1.90289071
H        1.33117145       1.86476334      -2.80771153
H        0.87782407       3.48062832      -1.04383675
H        1.54419353       5.76498704      -1.00271150
H        3.05449540       7.47978505      -1.90740037
H        5.58841404       4.40336267      -3.52122594
H        5.20782882       2.11461799      -2.27961847
H        4.44144664       2.30949535      -4.92408890
H        3.55352950      -0.09609046      -5.01526152
H        2.39017434      -0.59205056      -2.75199617
H        4.12868536      -0.67761008      -2.40012874
H        3.62893431       1.07968012      -0.88834888
C       -1.83350355      -1.83350355      -1.83350355
N       -2.32046619      -0.95926013      -2.88561450
C       -3.08363795      -1.59455697      -3.87108697
C       -3.95051116      -0.83046326      -4.66387857
C       -4.66016723      -1.40932610      -5.71797316
C       -4.48151421      -2.75727417      -6.00550848
Br      -5.42352669      -3.54571177      -7.44180401
C       -3.59331193      -3.52440109      -5.25526420
C       -2.87770613      -2.94582338      -4.19063973
C       -1.86516997      -3.77319772      -3.43887698
C       -2.46317997      -4.86433357      -2.59042228
C       -1.79319060      -5.01681386      -1.44296667
C       -0.66392335      -4.04367069      -1.34034165
C       -1.01796546      -2.99117470      -2.40871574
H       -2.65524633      -2.16224685      -1.18615314
H       -2.76397478      -0.12436937      -2.51394500
H       -4.07601491       0.23150970      -4.46738685
H       -5.33247819      -0.79692131      -6.31228133
H       -3.43542578      -4.57077223      -5.50680464
H       -1.19163331      -4.23744759      -4.17298438
H       -3.29851201      -5.48125069      -2.89526818
H       -2.00995844      -5.76772697      -0.69501515
H       -0.58780784      -3.63062013      -0.33169197
H        0.27832542      -4.54847385      -1.58105558
H       -0.10630344      -2.60557337      -2.88508650
C       -1.83350355       1.83350355       1.83350355
N       -2.31945679       0.95955668       2.88632735
C       -3.08244510       1.59497006       3.87186673
C       -3.94850237       0.83083797       4.66551265
C       -4.65790948       1.40988136       5.71967566
C       -4.47981232       2.75807333       6.00641121
Br      -5.42148541       3.54677001       7.44278705
C       -3.59240529       3.52527209       5.25529984
C       -2.87705412       2.94651144       4.19060369
C       -1.86534561       3.77402193       3.43787712
C       -2.46437170       4.86439959       2.58916452
C       -1.79506346       5.01662944       1.44127823
C       -0.66534027       4.04402426       1.33857115
C       -1.01827110       2.99190301       2.40768179
H       -2.65575747       2.16147708       1.18641178
H       -2.76272240       0.12423906       2.51532768
H       -4.07355246      -0.23130341       4.46964302
H       -5.32958801       0.79743604       6.31465677
H       -3.43493580       4.57185747       5.50620938
H       -1.19166791       4.23900919       4.17138817
H       -3.29986714       5.48103876       2.89412498
H       -2.01261655       5.76703682       0.69304720
H       -0.58953665       3.63048508       0.33009823
H        0.27676976       4.54944698       1.57852680
H       -0.10615771       2.60702896       2.88377663
C        1.83350355      -1.83350355       1.83350355
N        1.90448003      -3.11201148       1.14884931
C        2.75104114      -4.05210000       1.74614076
C        2.57577390      -5.41206780       1.45701129
C        3.45544982      -6.37363052       1.95838616
C        4.53947529      -5.97396365       2.73085792
Br       5.74615222      -7.26621777       3.39867248
C        4.75441094      -4.62334580       2.99522048
C        3.86924926      -3.65100069       2.49391929
C        4.16061472      -2.18960041       2.72702953
C        4.01060348      -1.74825001       4.15908234
C        3.49353561      -0.51756815       4.24186738
C        3.20194395       0.04095479       2.88694653
C        3.22049848      -1.21000560       1.98735182
H        1.29316065      -1.92745686       2.78302882
H        0.98315708      -3.48314010       0.93599196
H        1.74850310      -5.73411565       0.82927332
H        3.29264378      -7.42244411       1.72659294
H        5.62274971      -4.31637192       3.57388102
H        5.19549182      -1.99391795       2.41265551
H        4.32960693      -2.33410342       5.01132054
H        3.33581512       0.02657123       5.16345668
H        2.24667631       0.57113329       2.87457693
H        3.99293660       0.74354298       2.60181039
H        3.63229160      -0.96609700       0.99857471
C       -0.00445707       0.01189536      -1.78238275
H       -0.66409135       0.67374010      -2.43557963
H        0.65740317      -0.63156657      -2.45157240
C       -0.90989263      -0.90692880      -0.91072765
C        0.90977584       0.90977584      -0.90977584
C       -0.00465871       1.77757030       0.00794375
H       -0.66225468       2.44313916      -0.64384735
H        0.64322798       2.43503045       0.67728295
C       -1.78241447       0.00034974      -0.00472694
H       -2.45427497      -0.65498947       0.64260836
H       -2.43311707       0.67328779      -0.65473579
C       -0.91132561       0.90220522       0.91563759
C       -0.01476271      -0.02253852       1.78660255
H       -0.67934791      -0.69751639       2.42135241
H        0.63392994       0.61504881       2.47327442
C        0.01484550      -1.77751727      -0.01636693
H        0.67870853      -2.42144646      -0.68295456
H       -0.62264859      -2.45592969       0.64226336
C        1.78714474       0.01002794       0.00389507
H        2.44202412       0.67113390       0.66197326
H        2.45385902      -0.65136977      -0.64189061
C        0.91606151      -0.90478549       0.90901405
