125
Properties=species:S:1:pos:R:3 pbc="F F F"
C        0.00000000       0.00000000       0.00000000
C        0.88207135       0.88207135      -0.88207135
C        1.67548873       0.29670138      -1.86772251
C        2.47471575       1.11000322      -2.66864942
C        2.49131463       2.49211356      -2.48799206
C        1.69908544       3.06238806      -1.49218773
C        0.88303040       2.26368481      -0.69200018
N        1.67217817       4.47659309      -1.34520164
S        0.50444049       5.34505191      -2.20021274
O        0.95920859       6.71147482      -2.32167947
O        0.12418245       4.58399839      -3.37142962
C       -0.86572783       5.36462833      -1.06147028
C       -2.05925313       4.75621905      -1.49075837
C       -3.18792503       4.75903699      -0.67414217
C       -3.13668309       5.37137912       0.57130683
C       -1.95422893       5.97611654       1.00087700
C       -0.79004238       5.98465184       0.19912200
C        0.42291472       6.66853953       0.79047307
F        0.21179473       8.00187776       0.98072050
F        0.70217755       6.17028795       2.03286718
F        1.59220053       6.56899559       0.11485027
H        1.66660233      -0.78019348      -2.01433616
H        3.10001681       3.12132129      -3.13115244
H        0.26374686       2.70905790       0.08072504
H        2.56333176       4.97708691      -1.33740739
H       -2.12444705       4.28221944      -2.46920217
H       -4.10835749       4.29037474      -1.01537194
H       -4.01782664       5.38330397       1.20926377
H       -1.93961448       6.45410823       1.98212518
C        3.28720883       0.51775480      -3.69952128
C        3.96767178       0.02174675      -4.56287647
Br       5.06792283      -0.78025632      -5.95884878
C       -0.88207135      -0.88207135      -0.88207135
C       -1.25478270      -0.43589887      -2.14923105
C       -2.05752467      -1.24878851      -2.94705520
C       -2.49224204      -2.49114840      -2.48802981
C       -2.11864811      -2.92012008      -1.21489304
C       -1.30399448      -2.12470204      -0.41001887
N       -2.51425276      -4.21110376      -0.76861638
S       -1.47674857      -5.50934927      -1.06360730
O       -2.25358532      -6.72693887      -1.01183869
O       -0.66130483      -5.19946267      -2.21884295
C       -0.44011052      -5.50573797       0.38547771
C        0.93773182      -5.30772464       0.18226853
C        1.82117410      -5.32571865       1.25929042
C        1.33932391      -5.54579436       2.54308125
C       -0.02718848      -5.74264479       2.74882266
C       -0.95021491      -5.72363957       1.67836702
C       -2.40156570      -5.94363349       2.04421800
F       -2.61141633      -7.18611019       2.56457453
F       -2.79061483      -5.07488418       3.02590070
F       -3.32645504      -5.78748158       1.06759076
H       -0.91861328       0.53135686      -2.51348859
H       -3.09925649      -3.12856480      -3.12466925
H       -1.01063250      -2.46121264       0.57976542
H       -3.48918002      -4.48842336      -0.90022267
H        1.33771203      -5.14676255      -0.81792404
H        2.88576678      -5.17631606       1.09316009
H        2.02624828      -5.56883962       3.38637779
H       -0.38144976      -5.91734477       3.76642597
C       -2.43659669      -0.80456262      -4.26332560
C       -2.75406950      -0.43252343      -5.36570206
Br      -3.26739620       0.16903247      -7.14815156
C       -0.88207135       0.88207135       0.88207135
C       -0.30186715       1.89878195       1.63926352
C       -1.11520094       2.69938989       2.43877756
C       -2.49203632       2.48797574       2.49140819
C       -3.05689132       1.46148590       1.73528400
C       -2.25854589       0.66089792       0.91927158
N       -4.46756639       1.28199413       1.74441237
S       -5.38173135       2.08993060       0.57804319
O       -6.73997091       2.19096862       1.06142335
O       -4.65675068       3.26894212       0.15391765
C       -5.40593229       0.91965956      -0.76522107
C       -4.83474037       1.33487586      -1.98189193
C       -4.84418220       0.49252536      -3.09145343
C       -5.42624841      -0.76492629      -2.99793293
C       -5.99401408      -1.18059752      -1.79240595
C       -5.99477332      -0.35253586      -0.64674999
C       -6.63721776      -0.93098686       0.59475029
F       -7.97023112      -1.15614924       0.41887011
F       -6.10418838      -2.15501395       0.89042389
F       -6.52692254      -0.22643100       1.74585432
H        0.77087380       2.06945079       1.60216802
H       -3.12203008       3.13065469       3.09980577
H       -2.69981442      -0.13580783       0.32807312
H       -4.94747867       1.28349860       2.64684879
H       -4.38508586       2.32201283      -2.08012413
H       -4.40445635       0.82288571      -4.02995287
H       -5.44332939      -1.42319330      -3.86392253
H       -6.44873681      -2.17179715      -1.74457109
C       -0.52873639       3.76189407       3.21385445
C       -0.03757232       4.65174133       3.86298134
Br       0.75659843       6.09054909       4.91256463
C        0.88207135      -0.88207135       0.88207135
C        2.22178004      -1.07193365       0.54619893
C        3.01863398      -1.87631745       1.35841696
C        2.48818911      -2.49254503       2.49068610
C        1.14421364      -2.30047589       2.80897170
C        0.33727986      -1.48700131       2.01443423
N        0.61703955      -2.88223426       3.99469909
S        0.66026127      -1.97322681       5.41621706
O        0.57345196      -2.88361561       6.53529531
O        1.74158344      -1.01534291       5.32268410
C       -0.88860896      -1.09480149       5.35417826
C       -0.82305448       0.31002648       5.32080525
C       -1.98907067       1.07224282       5.30656762
C       -3.22598671       0.44121722       5.33059312
C       -3.29520391      -0.95253675       5.36367778
C       -2.13111282      -1.75443080       5.37216948
C       -2.35136820      -3.25085691       5.40149248
F       -2.96780124      -3.65103368       6.54971955
F       -3.18993327      -3.63681560       4.39271598
F       -1.26593254      -4.04862519       5.26365320
H        2.64182045      -0.59372467      -0.33480010
H        3.12140977      -3.09998907       3.13109170
H       -0.70821070      -1.33513676       2.26515366
H        0.82898163      -3.86385525       4.18498918
H        0.13678522       0.82476100       5.31495033
H       -1.92976842       2.15820392       5.28536153
H       -4.13932987       1.03226861       5.32781204
H       -4.27879840      -1.42539106       5.38577591
C        4.40740659      -2.06771627       1.02936206
C        5.57050365      -2.22801278       0.75377857
Br       7.45113322      -2.48719867       0.30818339
