101
Properties=species:S:1:pos:R:3 pbc="F F F"
C        0.00000000       0.00000000       0.00000000
Cl       6.95636443       4.18337766      -7.93899576
C        7.14959256       5.88018604      -7.58221892
C        6.47971214       6.43241388      -6.47416532
C        5.64329575       5.60369943      -5.64327620
C        4.94658706       4.91815200      -4.94792370
C        4.05717263       4.04540865      -4.05745964
C        3.36155792       3.35829885      -3.36101965
C        2.52888304       2.52825395      -2.52858290
C        2.38597853       1.15716149      -2.81412073
Cl       3.22618383       0.47751866      -4.18402737
C        1.57335791       0.34153126      -2.00280130
Cl       1.41114851      -1.35319967      -2.37501423
C        0.89870808       0.89870808      -0.89870808
C        1.03872492       2.27038323      -0.60926306
C        1.85287393       3.08097525      -1.42441424
Cl       2.03356318       4.78079018      -1.07533009
Cl       0.21102630       2.97531935       0.75274126
C        6.63243901       7.80110508      -6.18261623
Cl       5.79930711       8.48014012      -4.80809645
C        7.44934231       8.61485673      -6.99152877
C        8.11825339       8.05811997      -8.09931385
C        7.96802566       6.68889680      -8.39500051
Cl       8.78844812       5.98456215      -9.76172449
Br       9.23272974       9.16370663      -9.20406085
Cl       7.62407139      10.30662632      -6.61163250
Cl      -8.48322617      -4.65676118      -5.93875050
C       -7.83790280      -6.10258548      -6.67150924
C       -6.49194161      -6.44787609      -6.44647363
C       -5.65639725      -5.61511241      -5.61876172
C       -4.95683197      -4.92590061      -4.92993017
C       -4.06124639      -4.04870245      -4.05009209
C       -3.36230394      -3.35941595      -3.35915652
C       -2.52890552      -2.52853457      -2.52827979
C       -3.05806942      -1.36935340      -1.92983793
Cl      -4.72964078      -0.95210514      -2.20598393
C       -2.24725129      -0.55415921      -1.11627996
Cl      -2.92352864       0.87608982      -0.38552425
C       -0.89870808      -0.89870808      -0.89870808
C       -0.36487585      -2.05780988      -1.49568547
C       -1.18082347      -2.86909466      -2.30834528
Cl      -0.53034130      -4.30674700      -3.05259515
Cl       1.30127479      -2.49819288      -1.23668631
C       -5.96684333      -7.61342108      -7.03589591
Cl      -4.29765232      -8.03614464      -6.75374672
C       -6.77984209      -8.43072703      -7.84515869
C       -8.12644017      -8.08171504      -8.06753199
C       -8.65605606      -6.91596864      -7.47989827
Cl     -10.31975005      -6.46994500      -7.74503971
Br      -9.23783571      -9.19308475      -9.16957677
Cl      -6.10870070      -9.86916523      -8.56446428
Cl      -5.92859498       8.48660763       4.66353524
C       -6.66690376       7.83940317       6.10569059
C       -6.44635679       6.49193758       6.44799697
C       -5.61865222       5.65640667       5.61521250
C       -4.92984812       4.95684247       4.92597216
C       -4.05005881       4.06124999       4.04873212
C       -3.35914887       3.36230323       3.35942432
C       -2.52827881       2.52890484       2.52853623
C       -1.92535608       3.05954768       1.37235699
Cl      -2.19595836       4.73294784       0.95882365
C       -1.11178650       2.24873387       0.55717010
Cl      -0.37544006       2.92685612      -0.86933311
C       -0.89870808       0.89870808       0.89870808
C       -1.50017852       0.36339326       2.05479943
C       -2.31282596       1.17934450       2.86609295
Cl      -3.06261774       0.52703350       4.30003222
Cl      -1.24677009      -1.30460198       2.49143629
C       -7.04026615       5.96531946       7.61057471
Cl      -6.76366896       4.29426916       8.02960556
C       -7.84954040       6.77829687       8.42789053
C       -8.06741350       8.12640215       8.08187156
C       -7.47528018       8.65754311       6.91909967
Cl      -7.73482235      10.32311301       6.47679940
Br      -9.16945827       9.23777290       9.19326606
Cl      -8.57444495       6.10525839       9.86262687
Cl       4.60985896      -8.45801629       6.01086260
C        6.07082307      -7.82083056       6.72034388
C        6.43372728      -6.48433665       6.46822741
C        5.60603460      -5.65151795       5.63271883
C        4.92018987      -4.95376246       4.93871043
C        4.04618067      -4.05989093       4.05396931
C        3.35834764      -3.36172973       3.36079904
C        2.52821092      -2.52873156       2.52877740
C        1.34420116      -3.04455013       1.96850946
Cl       0.89593857      -4.69945133       2.29233996
C        0.52909652      -2.23378014       1.15481380
Cl      -0.93224353      -2.89334611       0.47186050
C        0.89870808      -0.89870808       0.89870808
C        2.08282298      -0.37832035       1.45722788
C        2.89389304      -1.19415256       2.27021782
Cl       4.36235118      -0.56022846       2.96710381
Cl       2.55439271       1.27106747       1.15027916
C        7.61182719      -5.96598662       7.03834651
Cl       8.05681311      -4.30876159       6.72196897
C        8.42362983      -6.77602736       7.85607062
C        8.05661319      -8.11294797       8.10612606
C        6.87859828      -8.63596955       7.53735514
Cl       6.41036995     -10.28772855       7.83663626
Br       9.16012540      -9.22012011       9.22025172
Cl       9.87752490      -6.11319401       8.55161130
