122
Properties=species:S:1:pos:R:3 pbc="F F F"
Cl       7.86626846       5.09328168      -8.84889978
C        8.05949658       6.79009006      -8.49212294
C        7.38961616       7.34231791      -7.38406934
C        6.55319977       6.51360346      -6.55318022
C        5.85649109       5.82805602      -5.85782772
C        4.96707666       4.95531268      -4.96736366
C        4.27146194       4.26820287      -4.27092368
C        3.43878707       3.43815797      -3.43848692
C        3.29588255       2.06706551      -3.72402475
Cl       4.13608785       1.38742268      -5.09393139
C        2.48326193       1.25143528      -2.91270533
Cl       2.32105253      -0.44329564      -3.28491825
C        1.80861211       1.80861211      -1.80861211
C        1.94862894       3.18028725      -1.51916708
C        2.76277795       3.99087927      -2.33431826
Cl       2.94346720       5.69069421      -1.98523412
Cl       1.12093033       3.88522338      -0.15716276
C        7.54234304       8.71100910      -7.09252026
Cl       6.70921113       9.39004414      -5.71800047
C        8.35924633       9.52476076      -7.90143279
C        9.02815741       8.96802399      -9.00921787
C        8.87792968       7.59880083      -9.30490453
Cl       9.69835214       6.89446618     -10.67162852
Br      10.14263377      10.07361066     -10.11396488
Cl       8.53397541      11.21653034      -7.52153653
Cl      -8.42109225      -5.02076854      -8.36658913
C       -8.31063629      -6.75932818      -8.27174512
C       -7.39538925      -7.34423662      -7.37637754
C       -6.55879777      -6.51455563      -6.54663006
C       -5.86073459      -5.82854873      -5.85309151
C       -4.96878825      -4.95555414      -4.96541060
C       -4.27183391      -4.26835715      -4.27039742
C       -3.43882640      -3.43821551      -3.43839004
C       -3.54053871      -2.03596473      -3.51046938
Cl      -4.68337038      -1.31783282      -4.61623873
C       -2.72855908      -1.22022259      -2.69862086
Cl      -2.87154983       0.51336136      -2.80448667
C       -1.80861211      -1.80861211      -1.80861211
C       -1.70335255      -3.21150659      -1.73322414
C       -2.51817052      -4.02204213      -2.54776284
Cl      -2.39632368      -5.76037366      -2.46269819
Cl      -0.57045707      -3.95527653      -0.63758286
C       -7.30260900      -8.74661903      -7.29664437
Cl      -6.16600393      -9.46598048      -6.18527134
C       -8.11863617      -9.56157661      -8.10522710
C       -9.03353051      -8.97214497      -8.99972379
C       -9.12950974      -7.56907151      -9.08305380
Cl     -10.25599924      -6.82401725     -10.18443035
Br     -10.14765481     -10.07932108     -10.10323341
Cl      -7.98701273     -11.29542830      -7.98960126
Cl      -6.83876756       9.39642277       5.57325959
C       -7.57692957       8.74926776       7.01551226
C       -7.35626390       7.40184171       7.35789779
C       -6.52855914       6.56631045       6.52511387
C       -5.83975431       5.86674622       5.83587429
C       -4.95996372       4.97115392       4.95863535
C       -4.26905309       4.27220728       4.26932812
C       -3.43818286       3.43880889       3.43844021
C       -2.83537862       3.96941285       2.28218135
Cl      -3.10612750       5.64276495       1.86854948
C       -2.02180935       3.15859893       1.46699426
Cl      -1.28561075       3.83667269       0.04039170
C       -1.80861211       1.80861211       1.80861211
C       -2.40996373       1.27333625       2.96478330
C       -3.22261149       2.08928740       3.77607660
Cl      -3.97225672       1.43702446       5.21011435
Cl      -2.15640746      -0.39461051       3.40151952
C       -7.95005460       6.87526356       8.52055424
Cl      -7.67331059       5.20426212       8.93968304
C       -8.75932855       7.68824153       9.33786980
C       -8.97732065       9.03630719       8.99177144
C       -8.38530632       9.56740806       7.82892066
Cl      -8.64499657      11.23292865       7.38652162
Br     -10.07936542      10.14767859      10.10316529
Cl      -9.48408503       7.01525292      10.77270433
Cl       6.83766842      -9.39678635       5.57399515
C        7.57643112      -8.74942905       7.01584941
C        7.35625127      -7.40184124       7.35791090
C        6.52854729      -6.56631144       6.52512473
C        5.83974544      -5.86674733       5.83588205
C        4.95996012      -4.97115430       4.95863857
C        4.26905226      -4.27220720       4.26932902
C        3.43818275      -3.43880881       3.43844039
C        2.83489355      -3.96957178       2.28250749
Cl       3.10504243      -5.64312050       1.86927899
C        2.02132302      -3.15875833       1.46732119
Cl       1.28451934      -3.83703044       0.04112537
C        1.80861211      -1.80861211       1.80861211
C        2.41045001      -1.27317685       2.96445642
C        3.22309644      -2.08912839       3.77575066
Cl       3.97334147      -1.43666883       5.20938523
Cl       2.15749883       0.39496823       3.40078587
C        7.95052762      -6.87509964       8.52024513
Cl       7.67438451      -5.20389829       8.93897295
C        8.75980281      -7.68807531       9.33756176
C        8.97730785      -9.03630303       8.99178840
C        8.38480651      -9.56756791       7.82926062
Cl       8.64389074     -11.23329021       7.38726588
Br      10.07935263     -10.14767175      10.10318493
Cl       9.48516529      -7.01488269      10.77199431
C       -0.00445707       0.01189536      -1.78238275
H       -0.66409135       0.67374010      -2.43557963
H        0.65740317      -0.63156657      -2.45157240
C       -0.90989263      -0.90692880      -0.91072765
C        0.90977584       0.90977584      -0.90977584
C       -0.00465871       1.77757030       0.00794375
H       -0.66225468       2.44313916      -0.64384735
H        0.64322798       2.43503045       0.67728295
C       -1.78241447       0.00034974      -0.00472694
H       -2.45427497      -0.65498947       0.64260836
H       -2.43311707       0.67328779      -0.65473579
C       -0.91132561       0.90220522       0.91563759
C       -0.01476271      -0.02253852       1.78660255
H       -0.67934791      -0.69751639       2.42135241
H        0.63392994       0.61504881       2.47327442
C        0.01484550      -1.77751727      -0.01636693
H        0.67870853      -2.42144646      -0.68295456
H       -0.62264859      -2.45592969       0.64226336
C        1.78714474       0.01002794       0.00389507
H        2.44202412       0.67113390       0.66197326
H        2.45385902      -0.65136977      -0.64189061
C        0.91606151      -0.90478549       0.90901405
