170
Properties=species:S:1:pos:R:3 pbc="F F F"
C        1.82181993       1.82181993      -1.82181993
N        2.87208680       2.47468170      -1.04215224
C        2.73867072       3.73463073      -0.46505604
C        1.64813547       4.48992904      -0.28817148
C        1.76363024       5.83136021       0.36921253
O        2.84712368       6.20900830       0.82354183
C        0.49671967       6.68176674       0.41776916
F        0.22340098       7.13448419       1.67188350
F        0.58365461       7.78033019      -0.38187187
F       -0.61638723       6.00701280       0.00992157
C        4.20140344       1.80657685      -1.05944897
C        4.48860608       0.95183702       0.19694580
N        4.52131717       1.74119704       1.44825732
C        5.64602249       2.47385045       1.81404671
C        5.80494298       3.27888299       2.87428534
C        7.08397996       4.01539352       3.10711718
O        8.06561249       3.79577517       2.39239821
C        7.07337756       5.05652756       4.22539087
F        8.15259797       4.95151642       5.04932266
F        7.08043397       6.32949863       3.74140891
F        5.97632185       4.96799336       5.03266159
C        3.27048322       1.74020211       2.20416973
H        1.15579679       2.54504719      -2.30231188
H        2.22281166       1.16967040      -2.60315625
H        3.69990372       4.11371905      -0.10842516
H        0.66298787       4.16656950      -0.59796209
H        4.98775621       2.56343514      -1.17758112
H        4.28388067       1.15932545      -1.94093361
H        5.45802638       0.45410120       0.06503606
H        3.74986985       0.14545326       0.27488681
H        6.47215929       2.34691695       1.11499501
H        5.01299545       3.44067805       3.59383049
H        2.41602805       1.40685006       1.61531235
H        3.03136918       2.72412696       2.61847005
C        3.36032229       0.81788312       3.30637508
C        3.43556251       0.04544096       4.22947205
Br       3.55721959      -1.20353267       5.72204179
C       -1.82181993      -1.82181993      -1.82181993
N       -1.95885656      -1.26393797      -3.16612621
C       -2.98607986      -0.40497063      -3.54730700
C       -3.87986255       0.25382243      -2.80019587
C       -4.90270617       1.13156382      -3.45463557
O       -4.87374532       1.31572413      -4.67456897
C       -5.96264972       1.74521677      -2.54328431
F       -6.07103575       3.09203135      -2.70699727
F       -7.20018830       1.22500962      -2.77067799
F       -5.70881651       1.54605111      -1.21793859
C       -1.04467718      -1.82608679      -4.19666528
C        0.18687372      -0.93853424      -4.49183677
N       -0.16570936       0.39046092      -5.03900843
C       -0.48316002       0.56020164      -6.38286784
C       -0.87870584       1.67790675      -7.00874153
C       -1.20452783       1.67924221      -8.46697069
O       -0.99229545       0.67458300      -9.15127700
C       -1.84003724       2.95442965      -9.01890666
F       -1.25427623       3.37400654     -10.17452204
F       -3.16344375       2.79013452      -9.29521445
F       -1.76485141       4.00987017      -8.15667238
C       -0.22166683       1.46373874      -4.04858751
H       -2.78582328      -1.90644608      -1.31088651
H       -1.35896135      -2.81294965      -1.82372732
H       -3.01507408      -0.27474186      -4.63223199
H       -3.89401924       0.18672136      -1.72022159
H       -1.60482038      -1.99915587      -5.12479623
H       -0.68792818      -2.81424126      -3.88197028
H        0.82780303      -1.46153108      -5.21336346
H        0.79173165      -0.82807975      -3.58408820
H       -0.38728639      -0.36276813      -6.95402671
H       -0.99312017       2.61756958      -6.48429242
H       -0.28015085       1.09659640      -3.02401132
H       -1.06507267       2.14093821      -4.21289164
C        0.98222877       2.25174961      -4.10580871
C        1.99049132       2.91170872      -4.15373147
Br       3.62076661       3.97880678      -4.23121852
C       -1.82181993       1.82181993       1.82181993
N       -2.02946339       1.22112095       3.13833640
C       -3.10076238       0.38814971       3.44944540
C       -3.98910258      -0.20903742       2.64617083
C       -5.06698781      -1.07082802       3.22961812
O       -5.09063370      -1.30005137       4.44200782
C       -6.11344723      -1.61073207       2.25800209
F       -6.27666852      -2.95756517       2.36689831
F       -7.33899129      -1.05292553       2.45979091
F       -5.80288414      -1.37334050       0.95116035
C       -1.13491979       1.71075370       4.22175576
C        0.05167008       0.76738459       4.52778279
N       -0.36919361      -0.56636848       5.01143175
C       -0.74291701      -0.77265331       6.33556253
C       -1.20198566      -1.89664182       6.90419678
C       -1.58226624      -1.93858259       8.34857266
O       -1.35964470      -0.96808650       9.07743125
C       -2.28389848      -3.20813112       8.82874688
F       -1.75761940      -3.69106339       9.98823572
F       -3.60993579      -3.00429365       9.06288155
F       -2.21464200      -4.23370089       7.93071252
C       -0.42672589      -1.60017088       3.97996059
H       -2.76221888       1.96111641       1.27982057
H       -1.32373469       2.79411540       1.87778823
H       -3.17525037       0.21985873       4.52693884
H       -3.96018132      -0.10234417       1.56968231
H       -1.72293804       1.87101105       5.13482338
H       -0.73099726       2.69554706       3.95759541
H        0.68354174       1.23940017       5.29123308
H        0.68584518       0.66723535       3.63904612
H       -0.63520040       0.12474385       6.94413698
H       -1.33057992      -2.81170512       6.34096821
H       -0.43327826      -1.19418689       2.96847439
H       -1.29971059      -2.25067502       4.08799052
C        0.74480615      -2.43446774       4.05110423
C        1.72596424      -3.13319136       4.11068703
Br       3.31241389      -4.26296836       4.20702738
C        1.82181993      -1.82181993       1.82181993
N        2.50370994      -2.84897686       1.03623394
C        1.99232467      -4.12575402       0.82027881
C        0.76650287      -4.61242651       1.04730661
C        0.45634789      -6.04278071       0.72664931
O        1.30232486      -6.75342855       0.17683674
C       -0.92429257      -6.55204948       1.13296034
F       -1.57700235      -7.15878262       0.10422139
F       -0.85991236      -7.46231754       2.14345148
F       -1.75215812      -5.56083766       1.57202445
C        3.90072808      -2.53420945       0.63249173
C        4.03350866      -2.03522813      -0.82523950
N        3.60709595      -3.03583923      -1.82867830
C        4.44500191      -4.07675097      -2.21592665
C        4.18200349      -5.08595141      -3.05841428
C        5.19819550      -6.14232860      -3.34826780
O        6.34762419      -6.03403651      -2.91267125
C        4.71421336      -7.34590046      -4.15559957
F        5.55969536      -7.66841504      -5.17331867
F        4.59205798      -8.46364382      -3.38717811
F        3.49227206      -7.15117190      -4.73179034
C        2.23454506      -2.87692731      -2.30495677
H        1.16565541      -2.25395707       2.58354338
H        2.51944280      -1.14823195       2.32796357
H        2.74560728      -4.78908377       0.38735689
H       -0.03170613      -4.00531568       1.45390991
H        4.53016058      -3.42200834       0.77660356
H        4.31906724      -1.76834958       1.29672291
H        5.08337289      -1.77257433      -1.00885571
H        3.46870808      -1.10416289      -0.95243468
H        5.42487865      -4.02173490      -1.74253232
H        3.22287677      -5.18639123      -3.54942499
H        1.63040033      -2.23805539      -1.66088995
H        1.71581242      -3.83410774      -2.41289406
C        2.23037745      -2.23580844      -3.59435556
C        2.22688708      -1.69887139      -4.67422704
Br       2.22124344      -0.83068959      -6.42028790
C       -0.00445707       0.01189536      -1.78238275
H       -0.66409135       0.67374010      -2.43557963
H        0.65740317      -0.63156657      -2.45157240
C       -0.90989263      -0.90692880      -0.91072765
C        0.90977584       0.90977584      -0.90977584
C       -0.00465871       1.77757030       0.00794375
H       -0.66225468       2.44313916      -0.64384735
H        0.64322798       2.43503045       0.67728295
C       -1.78241447       0.00034974      -0.00472694
H       -2.45427497      -0.65498947       0.64260836
H       -2.43311707       0.67328779      -0.65473579
C       -0.91132561       0.90220522       0.91563759
C       -0.01476271      -0.02253852       1.78660255
H       -0.67934791      -0.69751639       2.42135241
H        0.63392994       0.61504881       2.47327442
C        0.01484550      -1.77751727      -0.01636693
H        0.67870853      -2.42144646      -0.68295456
H       -0.62264859      -2.45592969       0.64226336
C        1.78714474       0.01002794       0.00389507
H        2.44202412       0.67113390       0.66197326
H        2.45385902      -0.65136977      -0.64189061
C        0.91606151      -0.90478549       0.90901405
