162
Properties=species:S:1:pos:R:3 pbc="F F F"
C        1.82181993       1.82181993      -1.82181993
N        2.87208680       2.47468170      -1.04215224
C        2.73867072       3.73463073      -0.46505604
C        1.64813547       4.48992904      -0.28817148
C        1.76363024       5.83136021       0.36921253
O        2.84712368       6.20900830       0.82354183
C        0.49671967       6.68176674       0.41776916
F        0.22340098       7.13448419       1.67188350
F        0.58365461       7.78033019      -0.38187187
F       -0.61638723       6.00701280       0.00992157
C        4.20140344       1.80657685      -1.05944897
C        4.48860608       0.95183702       0.19694580
N        4.52131717       1.74119704       1.44825732
C        5.64602249       2.47385045       1.81404671
C        5.80494298       3.27888299       2.87428534
C        7.08397996       4.01539352       3.10711718
O        8.06561249       3.79577517       2.39239821
C        7.07337756       5.05652756       4.22539087
F        8.15259797       4.95151642       5.04932266
F        7.08043397       6.32949863       3.74140891
F        5.97632185       4.96799336       5.03266159
C        3.27048322       1.74020211       2.20416973
Br       3.39201320       0.49253327       3.69518019
H        1.15579679       2.54504719      -2.30231188
H        2.22281166       1.16967040      -2.60315625
H        3.69990372       4.11371905      -0.10842516
H        0.66298787       4.16656950      -0.59796209
H        4.98775621       2.56343514      -1.17758112
H        4.28388067       1.15932545      -1.94093361
H        5.45802638       0.45410120       0.06503606
H        3.74986985       0.14545326       0.27488681
H        6.47215929       2.34691695       1.11499501
H        5.01299545       3.44067805       3.59383049
H        2.41602805       1.40685006       1.61531235
H        3.03136918       2.72412696       2.61847005
C       -1.82181993      -1.82181993      -1.82181993
N       -2.07490186      -1.19565201      -3.11836687
C       -3.17251976      -0.38151742      -3.38432031
C       -4.05509531       0.17529411      -2.54643479
C       -5.16648822       1.02444057      -3.08373026
O       -5.22449940       1.28131093      -4.28940168
C       -6.20172592       1.51628108      -2.07527242
F       -6.39894655       2.86099884      -2.14805395
F       -7.41837440       0.93416896      -2.26165123
F       -5.85450639       1.25590685      -0.78210445
C       -1.19534625      -1.63827211      -4.23381090
C       -0.03879845      -0.65987478      -4.54482407
N       -0.50218166       0.67436365      -4.98643887
C       -0.91221281       0.90254089      -6.29615431
C       -1.41091027       2.02820436      -6.82683471
C       -1.82653137       2.09478350      -8.26050843
O       -1.59879391       1.14719760      -9.01739314
C       -2.56894190       3.35805154      -8.69362389
F       -2.08200055       3.88041533      -9.85320650
F       -3.89507614       3.12806102      -8.90150858
F       -2.50220274       4.36371206      -7.77316294
C       -0.55915875       1.68209805      -3.92945489
Br       0.99606010       2.85024671      -4.03567308
H       -2.74546268      -1.99621810      -1.26147508
H       -1.30262443      -2.78034040      -1.91267350
H       -3.27669127      -0.18991568      -4.45544098
H       -3.99792899       0.04418840      -1.47377887
H       -1.80114449      -1.79117045      -5.13645753
H       -0.76230589      -2.61902084      -4.00281300
H        0.58547932      -1.09865470      -5.33391614
H        0.61395352      -0.56537730      -3.66901252
H       -0.79814558       0.02245078      -6.92838643
H       -1.54734185       2.92651101      -6.23901218
H       -0.53200577       1.25253957      -2.92809957
H       -1.44944700       2.31386733      -4.00144643
C       -1.82181993       1.82181993       1.82181993
N       -2.30189250       1.09261865       2.99440959
C       -3.50725375       0.39703077       3.03407298
C       -4.33478474       0.05038317       2.04106808
C       -5.59136144      -0.70799502       2.34241150
O       -5.82697138      -1.08728037       3.49289914
C       -6.54102242      -0.95273461       1.17242945
F       -6.89312801      -2.26220362       1.05507728
F       -7.69958100      -0.24794020       1.29421586
F       -6.00896195      -0.59631393      -0.03194403
C       -1.52449397       1.29637523       4.24656005
C       -0.53087600       0.15334256       4.55927874
N       -1.19017039      -1.15342622       4.77751271
C       -1.78266828      -1.47211131       5.99526926
C       -2.46482176      -2.57865994       6.32337881
C       -3.06040119      -2.75100073       7.68285584
O       -2.82532178      -1.92859377       8.57226144
C       -3.98593324      -3.95212923       7.87071025
F       -3.70778846      -4.65592418       9.00292745
F       -5.29403311      -3.58329924       7.95778982
F       -3.91670427      -4.85037021       6.84531957
C       -1.22617379      -2.02323325       3.60357505
Br       0.16507418      -3.38035168       3.73479213
H       -2.64358924       2.17063125       1.18893537
H       -1.21526157       2.69233188       2.08804487
H       -3.76442623       0.10271444       4.05490727
H       -4.13045526       0.29106561       1.00599860
H       -2.21727118       1.42278952       5.08871177
H       -0.96038437       2.23508759       4.18866777
H        0.03498887       0.42113637       5.46094401
H        0.21131380       0.07570721       3.75604289
H       -1.65162087      -0.68834175       6.74080211
H       -2.62546048      -3.38251601       5.61689854
H       -1.02733519      -1.49240277       2.67263335
H       -2.18281123      -2.54336640       3.49758126
C        1.82181993      -1.82181993       1.82181993
N        2.16118758      -3.07600425       1.15172891
C        1.41703931      -4.24618652       1.27513166
C        0.19666753      -4.44075867       1.78880979
C       -0.39822736      -5.81576886       1.80823642
O        0.19727755      -6.75755372       1.27775889
C       -1.73701796      -5.97285790       2.52487732
F       -2.66768309      -6.59938335       1.75430140
F       -1.62534844      -6.70173437       3.66947074
F       -2.29105408      -4.78122808       2.89053000
C        3.48472995      -3.10982090       0.47287840
C        3.40965913      -2.88987490      -1.05603673
N        2.63883922      -3.93743091      -1.76201325
C        3.20462870      -5.17067564      -2.06947812
C        2.62188865      -6.23229585      -2.64464387
C        3.37661956      -7.49948108      -2.88384434
O        4.59098779      -7.54835325      -2.67035159
C        2.55543196      -8.70025670      -3.35117441
F        3.12216465      -9.34253019      -4.40990310
F        2.40573144      -9.63271345      -2.36992120
F        1.29270053      -8.36697707      -3.74802397
C        1.24412000      -3.59316806      -2.03077246
Br       1.03906074      -3.03651534      -3.88620980
H        1.26566115      -1.98799467       2.74950003
H        2.70477614      -1.22427666       2.06658552
H        1.95339001      -5.10512560       0.86353233
H       -0.39740521      -3.63170096       2.19322371
H        3.97746666      -4.06797594       0.68332987
H        4.14340131      -2.34283900       0.89789942
H        4.43192992      -2.87058168      -1.45542008
H        2.98976514      -1.89973998      -1.26906883
H        4.25372748      -5.23184274      -1.78148899
H        1.58204348      -6.22197515      -2.94417562
H        0.88926096      -2.75270247      -1.43439766
H        0.56585804      -4.43525101      -1.86408296
C       -0.00445707       0.01189536      -1.78238275
H       -0.66409135       0.67374010      -2.43557963
H        0.65740317      -0.63156657      -2.45157240
C       -0.90989263      -0.90692880      -0.91072765
C        0.90977584       0.90977584      -0.90977584
C       -0.00465871       1.77757030       0.00794375
H       -0.66225468       2.44313916      -0.64384735
H        0.64322798       2.43503045       0.67728295
C       -1.78241447       0.00034974      -0.00472694
H       -2.45427497      -0.65498947       0.64260836
H       -2.43311707       0.67328779      -0.65473579
C       -0.91132561       0.90220522       0.91563759
C       -0.01476271      -0.02253852       1.78660255
H       -0.67934791      -0.69751639       2.42135241
H        0.63392994       0.61504881       2.47327442
C        0.01484550      -1.77751727      -0.01636693
H        0.67870853      -2.42144646      -0.68295456
H       -0.62264859      -2.45592969       0.64226336
C        1.78714474       0.01002794       0.00389507
H        2.44202412       0.67113390       0.66197326
H        2.45385902      -0.65136977      -0.64189061
C        0.91606151      -0.90478549       0.90901405
