178
Properties=species:S:1:pos:R:3 pbc="F F F"
C        1.82440436       1.82440436      -1.82440436
N        1.04158015       2.50763320      -2.85657675
C        0.12687474       3.54728665      -2.35586137
C       -1.24783781       3.25465283      -2.68699987
C       -2.38089745       3.01346521      -2.95992463
C       -3.84244313       2.67253287      -3.25804768
C       -4.98465980       2.36759367      -3.45323179
C       -6.37557818       1.94857543      -3.66632888
N       -7.00080464       1.58158371      -2.38823475
C       -7.61245666       2.49108349      -1.53042034
C       -7.77966894       3.81210952      -1.67472333
C       -8.43901255       4.61998332      -0.60071160
O       -8.93729699       4.06153400       0.38012602
C       -8.44733770       6.13478881      -0.79249484
F       -9.70864321       6.63460146      -0.91019604
F       -7.86634815       6.79224238       0.24889011
F       -7.77808879       6.53928408      -1.91082287
C       -6.78596623       0.19101223      -1.98152976
Br      -8.08757925      -0.96835458      -2.84938258
C        1.34066354       2.34137686      -4.20801274
C        0.79251216       2.94940731      -5.26786531
C        1.23577731       2.63486423      -6.66051105
O        2.21064736       1.90344549      -6.85195040
C        0.45771759       3.31849421      -7.78036943
F        1.06755731       4.46349557      -8.19705740
F        0.30868283       2.53433483      -8.88218489
F       -0.80227716       3.68429119      -7.40315641
H        2.57411662       1.14743607      -2.24637226
H        2.33336431       2.54006101      -1.17055673
H        0.42259545       4.51517369      -2.77978781
H        0.22518351       3.66943268      -1.27022423
H       -6.39713493       1.10124765      -4.36196157
H       -6.94407043       2.74550176      -4.15846346
H       -7.98417259       2.01180803      -0.62222688
H       -7.42630032       4.34490674      -2.54748462
H       -6.91689728       0.04434808      -0.90449776
H       -5.79215942      -0.17327421      -2.25994557
H        2.12587559       1.60134974      -4.37365556
H       -0.00213701       3.67782870      -5.16667722
C       -1.82440436      -1.82440436      -1.82440436
N       -1.65556038      -3.24400002      -1.50622970
C       -2.18299126      -3.65327673      -0.19375477
C       -1.14756891      -4.19850831       0.65226233
C       -0.29416370      -4.64789580       1.34956711
C        0.81385395      -5.16909604       2.26710469
C        1.69897096      -5.52651077       2.99137415
C        2.80749096      -5.91780204       3.87098494
N        3.02213379      -4.89878734       4.90763974
C        2.33456720      -4.86078356       6.11716920
C        1.40243505      -5.69877601       6.58917704
C        0.75351178      -5.45028438       7.91509023
O        1.15009770      -4.53361883       8.63941013
C       -0.40019702      -6.37531434       8.29556541
F       -0.12561717      -7.11564224       9.40510512
F       -1.54715069      -5.69105435       8.56120092
F       -0.71699392      -7.27124416       7.31621991
C        3.90441157      -3.79979893       4.50881160
Br       5.76632096      -4.31410314       4.75433344
C       -1.25336704      -4.15292840      -2.48375770
C       -1.13449556      -5.48365781      -2.39163141
C       -0.67342467      -6.30566495      -3.55206297
O       -0.52043567      -5.78542202      -4.66018557
C       -0.48005222      -7.79446264      -3.28206636
F       -1.58010750      -8.52047802      -3.62752475
F        0.56845494      -8.32870847      -3.96494903
F       -0.25231983      -8.06861011      -1.96424051
H       -1.52929776      -1.58708859      -2.85153861
H       -2.86109690      -1.50355750      -1.67932766
H       -2.97911770      -4.39296060      -0.34547865
H       -2.66862730      -2.81204419       0.31583106
H        3.71580720      -6.05388697       3.27200547
H        2.60830726      -6.89434232       4.32614026
H        2.62591078      -4.00330528       6.72753218
H        1.06635909      -6.56062558       6.02817545
H        3.75378298      -2.90043185       5.11470032
H        3.77974951      -3.52978193       3.45552049
H       -1.00528857      -3.66656197      -3.42903036
H       -1.34841596      -6.01887997      -1.47507299
C       -1.82440436       1.82440436       1.82440436
N       -1.28863235       3.18304631       1.93411144
C       -1.35479543       3.97850925       0.69671808
C       -0.04345719       4.39339434       0.25696336
C        1.03736351       4.73535076      -0.10549486
C        2.43102655       5.12317800      -0.60401403
C        3.52988114       5.37566335      -1.00961654
C        4.88722168       5.63313221      -1.50658440
N        5.15297861       4.83006264      -2.70807022
C        4.81653430       5.22511943      -3.99953797
C        4.23560423       6.35806250      -4.41529435
C        3.92289039       6.56858563      -5.86401287
O        4.29874635       5.74953234      -6.70667499
C        3.12696779       7.82314998      -6.21623624
F        3.83118840       8.67701649      -7.00967379
F        1.97528674       7.53591091      -6.88362005
F        2.75470494       8.54902285      -5.12229974
C        5.65243539       3.47944524      -2.44043410
Br       7.57765221       3.52323068      -2.15212974
C       -0.98027185       3.73176959       3.17801170
C       -0.56957281       4.97325991       3.46695207
C       -0.27193329       5.38682990       4.87238940
O       -0.52752778       4.62777547       5.81074001
C        0.28850273       6.79426925       5.05081470
F       -0.68950393       7.69747505       5.34113129
F        1.20636321       6.88011241       6.05145334
F        0.90743757       7.26419116       3.92841685
H       -1.86637778       1.31112380       2.79042338
H       -2.82908270       1.82562867       1.38927068
H       -1.99247424       4.85431958       0.87076313
H       -1.85133118       3.41911306      -0.10560382
H        5.61303885       5.39811305      -0.71899990
H        5.02102561       6.69968995      -1.71876955
H        5.07535189       4.46611660      -4.74090240
H        3.94856774       7.14316854      -3.72850975
H        5.48498998       2.79670573      -3.27976719
H        5.20129146       3.04075384      -1.54495044
H       -1.09630108       3.01311420       3.99146561
H       -0.41886393       5.72301304       2.70049195
C        1.82440436      -1.82440436       1.82440436
N        1.67405622      -1.48950308       3.24223080
C        0.36763813      -1.83546018       3.82692445
C       -0.31476061      -0.67018797       4.33838753
C       -0.87720922       0.29024194       4.75994355
C       -1.62605392       1.53259576       5.24678709
C       -2.22182488       2.51853385       5.57652439
C       -2.94667831       3.74511157       5.93111601
N       -4.05932798       3.96965843       4.99800022
C       -5.32583232       3.41203374       5.14691322
C       -5.79363347       2.61801899       6.11881638
C       -7.19373727       2.09090493       6.06632457
O       -7.96923373       2.47255900       5.18590373
C       -7.58279123       1.07619042       7.13892761
F       -8.57769334       1.53431034       7.94815797
F       -8.02603018      -0.09625671       6.60677759
F       -6.54943913       0.74485798       7.96631528
C       -3.69602434       4.69726553       3.77986563
Br      -3.70891532       6.61493781       4.11730187
C        2.77505633      -1.10762570       4.00737111
C        2.83445465      -0.85428202       5.32104811
C        4.11300001      -0.44150044       5.97665214
O        5.17003449      -0.45534442       5.34066435
C        4.01991650      -0.08080803       7.45585669
F        4.33376624      -1.13726741       8.25707662
F        4.85119224       0.93628146       7.81029176
F        2.76556291       0.30859814       7.82820568
H        2.84434604      -1.66228136       1.46129756
H        1.54901224      -2.86590478       1.62906504
H        0.51990629      -2.56945403       4.62819663
H       -0.27092000      -2.34253365       3.09322678
H       -2.25343375       4.59449550       5.91400354
H       -3.31387996       3.68805917       6.96183392
H       -5.99228173       3.68317167       4.32531571
H       -5.17982932       2.30817948       6.95409984
H       -4.40428403       4.52642299       2.96265557
H       -2.69336286       4.43798874       3.42586354
H        3.68342404      -1.00707211       3.41038475
H        1.96286408      -0.91939994       5.96010490
C       -0.00445707       0.01189536      -1.78238275
H       -0.66409135       0.67374010      -2.43557963
H        0.65740317      -0.63156657      -2.45157240
C       -0.90989263      -0.90692880      -0.91072765
C        0.90977584       0.90977584      -0.90977584
C       -0.00465871       1.77757030       0.00794375
H       -0.66225468       2.44313916      -0.64384735
H        0.64322798       2.43503045       0.67728295
C       -1.78241447       0.00034974      -0.00472694
H       -2.45427497      -0.65498947       0.64260836
H       -2.43311707       0.67328779      -0.65473579
C       -0.91132561       0.90220522       0.91563759
C       -0.01476271      -0.02253852       1.78660255
H       -0.67934791      -0.69751639       2.42135241
H        0.63392994       0.61504881       2.47327442
C        0.01484550      -1.77751727      -0.01636693
H        0.67870853      -2.42144646      -0.68295456
H       -0.62264859      -2.45592969       0.64226336
C        1.78714474       0.01002794       0.00389507
H        2.44202412       0.67113390       0.66197326
H        2.45385902      -0.65136977      -0.64189061
C        0.91606151      -0.90478549       0.90901405
