186
Properties=species:S:1:pos:R:3 pbc="F F F"
C        1.82440436       1.82440436      -1.82440436
N        1.04158015       2.50763320      -2.85657675
C        0.12687474       3.54728665      -2.35586137
C       -1.24783781       3.25465283      -2.68699987
C       -2.38089745       3.01346521      -2.95992463
C       -3.84244313       2.67253287      -3.25804768
C       -4.98465980       2.36759367      -3.45323179
C       -6.37557818       1.94857543      -3.66632888
N       -7.00080464       1.58158371      -2.38823475
C       -7.61245666       2.49108349      -1.53042034
C       -7.77966894       3.81210952      -1.67472333
C       -8.43901255       4.61998332      -0.60071160
O       -8.93729699       4.06153400       0.38012602
C       -8.44733770       6.13478881      -0.79249484
F       -9.70864321       6.63460146      -0.91019604
F       -7.86634815       6.79224238       0.24889011
F       -7.77808879       6.53928408      -1.91082287
C       -6.78596623       0.19101223      -1.98152976
C        1.34066354       2.34137686      -4.20801274
C        0.79251216       2.94940731      -5.26786531
C        1.23577731       2.63486423      -6.66051105
O        2.21064736       1.90344549      -6.85195040
C        0.45771759       3.31849421      -7.78036943
F        1.06755731       4.46349557      -8.19705740
F        0.30868283       2.53433483      -8.88218489
F       -0.80227716       3.68429119      -7.40315641
H        2.57411662       1.14743607      -2.24637226
H        2.33336431       2.54006101      -1.17055673
H        0.42259545       4.51517369      -2.77978781
H        0.22518351       3.66943268      -1.27022423
H       -6.39713493       1.10124765      -4.36196157
H       -6.94407043       2.74550176      -4.15846346
H       -7.98417259       2.01180803      -0.62222688
H       -7.42630032       4.34490674      -2.54748462
H       -6.91689728       0.04434808      -0.90449776
H       -5.79215942      -0.17327421      -2.25994557
H        2.12587559       1.60134974      -4.37365556
H       -0.00213701       3.67782870      -5.16667722
C       -7.74855115      -0.66637702      -2.62333498
C       -8.55471602      -1.38444052      -3.16084686
Br      -9.85821643      -2.54548847      -4.02995810
C       -1.82440436      -1.82440436      -1.82440436
N       -2.49508121      -2.86664253      -1.04406636
C       -3.53179447      -2.37944111      -0.11878717
C       -3.22737757      -2.71799162       1.25155429
C       -2.97647817      -2.99702551       2.38101129
C       -2.62339079      -3.30282486       3.83807824
C       -2.30921409      -3.50374331       4.97679173
C       -1.87911836      -3.72349429       6.36328652
N       -1.51660427      -2.44721949       6.99480994
C       -2.42772452      -1.59995058       7.61862793
C       -3.74653731      -1.75454459       7.79391799
C       -4.55719301      -0.69071289       8.46622353
O       -4.00206518       0.29051837       8.96743582
C       -6.07054976      -0.89303408       8.48363789
F       -6.56079477      -1.02286512       9.74750559
F       -6.73915715       0.14774410       7.91440893
F       -6.47196921      -2.00950734       7.80945839
C       -0.13038376      -2.02942685       6.77323485
C       -2.32160975      -4.21480599      -1.35363741
C       -2.91852650      -5.28258838      -0.80866990
C       -2.59749039      -6.66994119      -1.26372101
O       -1.87154076      -6.84960202      -2.24490048
C       -3.26799832      -7.79983118      -0.48875173
F       -4.41430253      -8.22023427      -1.09357347
F       -2.47526679      -8.89718891      -0.35274685
F       -3.62764676      -7.43383451       0.77631083
H       -1.14975800      -2.23650829      -2.58165866
H       -2.54804807      -1.17204346      -2.32389052
H       -4.49876779      -2.80801611      -0.41077305
H       -3.66208165      -1.29402543      -0.20873335
H       -1.02689763      -4.41337446       6.37419780
H       -2.66868547      -4.22503370       6.93382438
H       -1.95214367      -0.69103783       7.99331919
H       -4.27575399      -2.62852366       7.43818661
H        0.00977308      -0.95233096       6.91060932
H        0.22891809      -2.29847211       5.77504209
H       -1.58591620      -4.36991624      -2.14504846
H       -3.64210626      -5.19191433      -0.00834834
C        0.73804429      -2.67188413       7.72543304
C        1.46535277      -3.20994210       8.52289902
Br       2.64134908      -4.07993633       9.81233406
C       -1.82440436       1.82440436       1.82440436
N       -1.04838474       2.88258689       2.47481848
C       -0.53722626       3.92440586       1.56839065
C        0.90449709       3.99939952       1.59891247
C        2.09278571       4.06121475       1.62406335
C        3.62236538       4.09928190       1.61122089
C        4.81986877       4.08313576       1.57289867
C        6.28510849       4.01214393       1.51229069
N        6.71783897       3.46985433       0.21699845
C        6.90359717       4.23999394      -0.92734961
C        6.76277467       5.56174171      -1.09180312
C        6.97646436       6.19121580      -2.43306908
O        7.39476374       5.51611638      -3.37724165
C        6.64618317       7.67730182      -2.55117271
F        7.74170705       8.42869351      -2.85083217
F        5.72710859       7.92822693      -3.52411422
F        6.13096404       8.20686009      -1.40387788
C        6.77913109       2.00765671       0.15805013
C       -1.02500278       3.00141810       3.86363226
C       -0.44747524       3.94898202       4.61332752
C       -0.51595261       3.90902361       6.10617637
O       -1.22150112       3.07099721       6.67354493
C        0.27269540       4.98840885       6.84086778
F       -0.50793688       6.05794130       7.16223209
F        0.82537098       4.54733112       8.00324240
F        1.30288572       5.48960972       6.09844644
H       -2.28454962       1.13951947       2.54385587
H       -2.61337291       2.24087307       1.18973608
H       -0.97452847       4.88951924       1.85350924
H       -0.87432465       3.75152795       0.53898782
H        6.65264757       3.38527956       2.33344231
H        6.72338912       5.00200475       1.68127916
H        7.19648250       3.63312581      -1.78678100
H        6.46704179       6.21419376      -0.28106093
H        6.72787448       1.62702627      -0.86720324
H        5.98162372       1.53572943       0.74040622
H       -1.55359045       2.18612934       4.36116111
H        0.10562173       4.77111298       4.17687766
C        8.03118460       1.54298532       0.69660608
C        9.07977941       1.15382303       1.14764669
Br      10.77526854       0.52458053       1.87694120
C        1.82440436      -1.82440436       1.82440436
N        2.51195242      -2.85307924       1.04075845
C        3.55258187      -2.34771278       0.12972811
C        3.26400920      -2.67626772      -1.24646203
C        3.02616884      -2.94706305      -2.38073950
C        2.68942575      -3.24251058      -3.84379892
C        2.38767059      -3.43569552      -4.98720045
C        1.97247133      -3.64647171      -6.37961690
N        1.60392149      -2.36776703      -7.00267471
C        2.51282572      -1.50633573      -7.61011428
C        3.83458606      -1.64709697      -7.77451911
C        4.64146284      -0.56959759      -8.42937806
O        4.08186330       0.41109418      -8.92665813
C        6.15673681      -0.75775671      -8.43454757
F        6.65982746      -0.87126101      -9.69493418
F        6.81032169       0.28380093      -7.84951664
F        6.56230433      -1.87671195      -7.76699811
C        0.21187716      -1.96488427      -6.79018567
C        2.34820786      -4.20561613       1.33622915
C        2.96006575      -5.26270943       0.78700960
C        2.64779059      -6.65715235       1.22620965
O        1.91451358      -6.85265480       2.19887488
C        3.33593752      -7.77352312       0.44712059
F        4.48047530      -8.18893923       1.05869574
F        2.55476417      -8.87684222       0.29359616
F        3.70383011      -7.39243792      -0.81109759
H        1.14666272      -2.24976769       2.57149455
H        2.53728733      -1.17007167       2.33662305
H        4.52077077      -2.77003965       0.42674653
H        3.67190486      -1.26202565       0.23090991
H        1.12685824      -4.34406455      -6.40484849
H        2.77191878      -4.13535243      -6.94737641
H        2.03227173      -0.59840116      -7.98081058
H        4.36862066      -2.51942851      -7.42195813
H        0.06295729      -0.88789505      -6.91890379
H       -0.15410730      -2.24653456      -5.79791532
H        1.60671214      -4.37489047       2.11927828
H        3.69013193      -5.15789457      -0.00565758
C       -0.64168731      -2.60643017      -7.75633605
C       -1.35654755      -3.14372486      -8.56548699
Br      -2.51241611      -4.01248493      -9.87381563
C       -0.00445707       0.01189536      -1.78238275
H       -0.66409135       0.67374010      -2.43557963
H        0.65740317      -0.63156657      -2.45157240
C       -0.90989263      -0.90692880      -0.91072765
C        0.90977584       0.90977584      -0.90977584
C       -0.00465871       1.77757030       0.00794375
H       -0.66225468       2.44313916      -0.64384735
H        0.64322798       2.43503045       0.67728295
C       -1.78241447       0.00034974      -0.00472694
H       -2.45427497      -0.65498947       0.64260836
H       -2.43311707       0.67328779      -0.65473579
C       -0.91132561       0.90220522       0.91563759
C       -0.01476271      -0.02253852       1.78660255
H       -0.67934791      -0.69751639       2.42135241
H        0.63392994       0.61504881       2.47327442
C        0.01484550      -1.77751727      -0.01636693
H        0.67870853      -2.42144646      -0.68295456
H       -0.62264859      -2.45592969       0.64226336
C        1.78714474       0.01002794       0.00389507
H        2.44202412       0.67113390       0.66197326
H        2.45385902      -0.65136977      -0.64189061
C        0.91606151      -0.90478549       0.90901405
