102
Properties=species:S:1:pos:R:3 pbc="F F F"
Cl       3.60063814       7.52027561       0.00675825
C        3.59583291       7.63934595      -1.76816717
C        3.75733127       6.26941245      -2.40120735
O        4.50480726       6.11520012      -3.36494636
N        2.93401666       5.29968922      -1.84953642
C        2.78822423       3.95620922      -2.25328999
C        1.97441440       3.13651947      -1.46071276
C        1.79294251       1.79294251      -1.79294251
C        2.40730712       1.24736600      -2.91387516
C        3.20673906       2.06485234      -3.70688937
C        3.40006922       3.41112562      -3.38492130
H        4.42350262       8.28669126      -2.06735814
H        2.64801509       8.07865746      -2.08894429
H        2.44350775       5.57290304      -1.00344376
H        1.48364570       3.53740732      -0.57777254
H        2.26420939       0.20034975      -3.16908754
H        4.02829875       4.01278933      -4.03532018
C        3.84303721       1.51302570      -4.87488423
C        4.37593692       1.05087088      -5.85307994
Br       5.23759067       0.30360563      -7.43473965
Cl      -1.94768912      -1.13985983      -8.02660654
C       -3.55874431      -1.79389480      -7.65070692
C       -3.53991708      -2.55202328      -6.33601072
O       -4.12715735      -3.62691464      -6.23088175
N       -2.89893112      -1.87387457      -5.31043662
C       -2.77134011      -2.26500216      -3.96138116
C       -1.97394590      -1.46103775      -3.13666298
C       -1.79294251      -1.79294251      -1.79294251
C       -2.40233369      -2.91732513      -1.24888946
C       -3.20313522      -3.70938928      -2.06595627
C       -3.39102680      -3.39119385      -3.41389549
H       -3.85076229      -2.46465680      -8.46213294
H       -4.26792258      -0.96524646      -7.58244780
H       -2.39227252      -1.03898463      -5.58859741
H       -1.48456178      -0.57713706      -3.53712670
H       -2.25848901      -3.17305566      -0.20210201
H       -4.02845086      -4.03521466      -4.01274274
C       -3.84563190      -4.87308435      -1.51223089
C       -4.38372288      -5.84767897      -1.04848589
Br      -5.25377047      -7.42351605      -0.29864944
Cl      -2.42561174       0.74634211       7.94220166
C       -3.96024372       1.53460824       7.50849407
C       -3.80001849       2.37384817       6.25408442
O       -4.30697171       3.49174353       6.18623850
N       -3.13456438       1.72100096       5.22767696
C       -2.88765343       2.18956362       3.92050639
C       -2.08877761       1.38741485       3.09545416
C       -1.79294251       1.79294251       1.79294251
C       -2.28801435       2.99033253       1.29020140
C       -3.09052435       3.78137394       2.10658248
C       -3.39261523       3.38969873       3.41380218
H       -4.26383801       2.16969072       8.34402330
H       -4.71554034       0.76382172       7.33625478
H       -2.70424116       0.83633396       5.47927943
H       -1.68740554       0.44717835       3.46424165
H       -2.05491126       3.30323133       0.27550409
H       -4.02691031       4.03621005       4.01328789
C       -3.61530439       5.02084323       1.59479952
C       -4.05480768       6.05889876       1.16618130
Br      -4.76544731       7.73734675       0.47314189
Cl       2.72527976      -7.86223136       0.52664438
C        2.92658476      -7.78433937       2.29242190
C        3.31431258      -6.38370134       2.72993716
O        4.18741318      -6.21814424       3.57939631
N        2.54059443      -5.38618555       2.15646233
C        2.59404439      -3.99885977       2.40481928
C        1.78350076      -3.17692125       1.61122462
C        1.79294251      -1.79294251       1.79294251
C        2.59710274      -1.20771715       2.76372839
C        3.39376161      -2.02565968       3.55905948
C        3.39698622      -3.41263572       3.38649419
H        3.70879984      -8.49214243       2.57660975
H        1.98318285      -8.06541982       2.76701417
H        1.92239902      -5.68792415       1.40953139
H        1.14649281      -3.60859123       0.84374150
H        2.60234734      -0.12941367       2.90188568
H        4.03086711      -4.01223197       4.03330918
C        4.22604956      -1.43181425       4.57308333
C        4.92309072      -0.93446871       5.42232831
Br       6.05014732      -0.13030303       6.79548561
C       -0.00445707       0.01189536      -1.78238275
H       -0.66409135       0.67374010      -2.43557963
H        0.65740317      -0.63156657      -2.45157240
C       -0.90989263      -0.90692880      -0.91072765
C        0.90977584       0.90977584      -0.90977584
C       -0.00465871       1.77757030       0.00794375
H       -0.66225468       2.44313916      -0.64384735
H        0.64322798       2.43503045       0.67728295
C       -1.78241447       0.00034974      -0.00472694
H       -2.45427497      -0.65498947       0.64260836
H       -2.43311707       0.67328779      -0.65473579
C       -0.91132561       0.90220522       0.91563759
C       -0.01476271      -0.02253852       1.78660255
H       -0.67934791      -0.69751639       2.42135241
H        0.63392994       0.61504881       2.47327442
C        0.01484550      -1.77751727      -0.01636693
H        0.67870853      -2.42144646      -0.68295456
H       -0.62264859      -2.45592969       0.64226336
C        1.78714474       0.01002794       0.00389507
H        2.44202412       0.67113390       0.66197326
H        2.45385902      -0.65136977      -0.64189061
C        0.91606151      -0.90478549       0.90901405
