114
Properties=species:S:1:pos:R:3 pbc="F F F"
C        1.82360160       1.82360160      -1.82360160
C        2.76396093       0.94490948      -2.66405146
C        3.65219063       1.83316227      -3.55253808
C        3.31378768       3.31382345      -3.31311520
C        3.55252192       3.65191307      -1.83278761
C        2.66485800       2.76350948      -0.94418033
C        1.83310085       3.55275185      -3.65147146
C        0.94487701       2.66504019      -2.76342510
H        3.39761277       0.32129288      -2.02190884
H        2.19298302       0.25180731      -3.29602215
H        3.50371558       1.56193403      -4.60549837
H        4.70788911       1.63124960      -3.33081579
H        3.33125851       4.70801040      -1.63059154
H        4.60574653       3.50339067      -1.56093311
H        2.02164015       3.39772360      -0.32064560
H        3.29569529       2.19323121      -0.25174381
H        1.63136075       3.33145002      -4.70755067
H        1.56169877       4.60582028      -3.50298058
H        0.25191873       3.29603546      -2.19293630
H        0.32106113       2.02184489      -3.39765588
C        4.14515922       4.14524739      -4.14447287
C        4.84143289       4.84156495      -4.84073493
Br       5.96724852       5.96745154      -5.96653178
C       -1.82360160      -1.82360160      -1.82360160
C       -1.35471238      -3.28468364      -1.73352584
C       -2.24310939      -4.17309659      -2.62168501
C       -3.31342122      -3.31327658      -3.31402852
C       -2.62126521      -2.24291249      -4.17304490
C       -1.73250067      -1.35478992      -3.28525722
C       -4.17285512      -2.62104513      -2.24342391
C       -3.28511536      -1.73278559      -1.35544136
H       -0.30908145      -3.38209612      -2.04963692
H       -1.39608354      -3.64697619      -0.69775275
H       -2.70563194      -4.95697391      -2.00854212
H       -1.61832012      -4.69146006      -3.36017433
H       -3.35973502      -1.61805051      -4.69207493
H       -2.00763471      -2.70513994      -4.95729565
H       -2.04942881      -0.30840749      -3.38217304
H       -0.69800685      -1.39576419      -3.64689927
H       -4.69169690      -3.35978053      -1.61888401
H       -4.95686035      -2.00775353      -2.70588575
H       -3.64692233      -0.69777883      -1.39618934
H       -3.38214961      -2.04955441      -0.30885787
C       -4.14482358      -4.14462069      -4.14543522
C       -4.84112305      -4.84087138      -4.84173833
Br      -5.96698040      -5.96664986      -5.96760157
C       -1.82360160       1.82360160       1.82360160
C       -1.35467900       3.28467549       1.73356737
C       -2.24307600       4.17308844       2.62172655
C       -3.31342124       3.31327657       3.31402852
C       -2.62130675       2.24287909       4.17303676
C       -1.73254222       1.35475650       3.28524909
C       -4.17284699       2.62108666       2.24339051
C       -3.28510723       1.73282712       1.35540795
H       -0.30905277       3.38205866       2.04970306
H       -1.39602006       3.64699122       0.69780120
H       -2.70556849       4.95698891       2.00859058
H       -1.61829147       4.69142257       3.36024047
H       -3.35980118       1.61802183       4.69203745
H       -2.00768318       2.70507645       4.95731066
H       -2.04949497       0.30837881       3.38213557
H       -0.69805530       1.39570072       3.64691429
H       -4.69165943       3.35984667       1.61885534
H       -4.95687537       2.00780198       2.70582228
H       -3.64693736       0.69782727       1.39612587
H       -3.38211214       2.04962056       0.30882919
C       -4.14482359       4.14462068       4.14543522
C       -4.84112307       4.84087137       4.84173833
Br      -5.96698042       5.96664985       5.96760157
C        1.82360160      -1.82360160       1.82360160
C        3.15374285      -1.10866367       2.11051534
C        4.04204648      -1.99685527       2.99898923
C        3.31357192      -3.31397618       3.31317823
C        2.99892289      -4.04187203       1.99642767
C        2.11113893      -3.15374376       1.10766512
C        1.99652727      -2.99933380       4.04146308
C        1.10823977      -2.11154150       3.15356103
H        3.68446403      -0.87725607       1.17909439
H        2.98216817      -0.14685364       2.61179066
H        4.29265318      -1.45731770       3.92117709
H        4.99439176      -2.18755414       2.48800860
H        2.48818600      -4.99479243       2.18688202
H        3.92117236      -4.29266139       1.45623655
H        1.17862113      -3.68463306       0.87675516
H        2.61141210      -2.98231100       0.14694721
H        2.18740562      -2.48870634       4.99424948
H        1.45679942      -3.92157147       4.29212873
H        0.14693896      -2.61184812       2.98210341
H        0.87707033      -1.17895390       3.68453766
C        4.14492706      -4.14539928       4.14455315
C        4.84118700      -4.84171612       4.84082964
Br       5.96698043      -5.96760156       5.96664984
C       -0.00445707       0.01189536      -1.78238275
H       -0.66409135       0.67374010      -2.43557963
H        0.65740317      -0.63156657      -2.45157240
C       -0.90989263      -0.90692880      -0.91072765
C        0.90977584       0.90977584      -0.90977584
C       -0.00465871       1.77757030       0.00794375
H       -0.66225468       2.44313916      -0.64384735
H        0.64322798       2.43503045       0.67728295
C       -1.78241447       0.00034974      -0.00472694
H       -2.45427497      -0.65498947       0.64260836
H       -2.43311707       0.67328779      -0.65473579
C       -0.91132561       0.90220522       0.91563759
C       -0.01476271      -0.02253852       1.78660255
H       -0.67934791      -0.69751639       2.42135241
H        0.63392994       0.61504881       2.47327442
C        0.01484550      -1.77751727      -0.01636693
H        0.67870853      -2.42144646      -0.68295456
H       -0.62264859      -2.45592969       0.64226336
C        1.78714474       0.01002794       0.00389507
H        2.44202412       0.67113390       0.66197326
H        2.45385902      -0.65136977      -0.64189061
C        0.91606151      -0.90478549       0.90901405
