106
Properties=species:S:1:pos:R:3 pbc="F F F"
C        1.77717837       1.77717837      -1.77717837
C        1.57636626       3.12010034      -2.01384515
C        2.62146896       3.53161750      -2.87919382
C        3.38218726       2.41004819      -3.10634423
O        2.88100506       1.33792908      -2.44350341
C        4.54628650       2.21165068      -3.88322714
C        5.53427629       2.08503645      -4.55307409
C        6.79205712       1.98019549      -5.41963067
C        7.77472856       1.95015510      -6.10901215
C        8.92664410       1.96168294      -6.92816872
C        9.53047201       2.97470024      -7.63416656
C       10.65485264       2.38705409      -8.26757652
C       10.65259133       1.05877702      -7.90044298
O        9.59788851       0.79273295      -7.08132789
H        0.77747380       3.72862149      -1.61379670
H        2.79624102       4.51854775      -3.28386389
H        9.20390509       4.00385318      -7.68620948
H       11.37509507       2.87312596      -8.91048039
C       11.62370594       0.08082398      -8.31774894
C       12.43701442      -0.73821170      -8.66724268
Br      13.75206545      -2.06252311      -9.23234450
C       -1.77717837      -1.77717837      -1.77717837
C       -1.81114529      -3.15469519      -1.74447128
C       -2.75992237      -3.55197360      -2.72038431
C       -3.23439680      -2.38819342      -3.27598946
O       -2.64636063      -1.30330738      -2.71276955
C       -4.19146161      -2.15904421      -4.29065850
C       -5.01031181      -2.00699955      -5.15507547
C       -6.06169416      -1.87061432      -6.25957480
C       -6.89138550      -1.81662721      -7.12588310
C       -7.87144528      -1.80069364      -8.14435684
C       -8.53977856      -2.82013917      -8.77942109
C       -9.40474152      -2.19297379      -9.71176794
C       -9.19901449      -0.83714943      -9.57564741
O       -8.26226162      -0.59118264      -8.61850510
H       -1.22630003      -3.79475567      -1.09883629
H       -3.05825442      -4.55705258      -2.98334565
H       -8.42031778      -3.87856270      -8.59508728
H      -10.09117996      -2.67161561     -10.39590586
C       -9.87394595       0.18477264     -10.33310554
C      -10.43920104       1.04063237     -10.96747672
Br     -11.35317073       2.42448516     -11.99320127
C       -1.77717837       1.77717837       1.77717837
C       -3.11246373       1.55825479       2.03959325
C       -3.52703936       2.61061115       2.89462977
C       -2.41472661       3.39328290       3.09057017
O       -1.34548401       2.89892282       2.41803072
C       -2.22265754       4.57239107       3.84611570
C       -2.10070441       5.57143543       4.50024699
C       -2.00070372       6.84069575       5.35048381
C       -1.97331291       7.82965108       6.03093182
C       -1.98689004       8.98642687       6.84317886
C       -2.99271486       9.57319664       7.57342731
C       -2.41136440      10.71250852       8.18561033
C       -1.09373479      10.73549940       7.78257714
O       -0.82832028       9.68228969       6.96133938
H       -3.71402149       0.74284751       1.66302299
H       -4.50985472       2.77562407       3.31317387
H       -4.01306713       9.22575748       7.65514313
H       -2.89448077      11.42574149       8.83847917
C       -0.12487546      11.72818124       8.16922214
C        0.68654422      12.55955229       8.49303733
Br       1.99854123      13.90380896       9.01661911
C        1.77717837      -1.77717837       1.77717837
C        3.13947475      -1.63745085       1.93338616
C        3.54298061      -2.65729512       2.83200455
C        2.39774481      -3.34339658       3.15743829
O        1.31850126      -2.81975211       2.52418418
C        2.18192385      -4.45256231       4.00667815
C        2.04065053      -5.39433422       4.73740208
C        1.91721398      -6.59348599       5.68118330
C        1.87260803      -7.53023441       6.43105337
C        1.86699937      -8.62812117       7.32137522
C        2.88108859      -9.23532867       8.02292156
C        2.27024702     -10.28657767       8.75265855
C        0.92854206     -10.24198026       8.44128900
O        0.67595839      -9.22971603       7.56627494
H        3.76565856      -0.89424605       1.45998739
H        4.54002725      -2.86396264       3.19466277
H        3.92560978      -8.95721552       8.01114245
H        2.75014541     -10.98735605       9.42119996
C       -0.07430335     -11.13461300       8.96196920
C       -0.91418639     -11.88219292       9.39803887
Br      -2.27220622     -13.09096642      10.10312664
C       -0.00445707       0.01189536      -1.78238275
H       -0.66409135       0.67374010      -2.43557963
H        0.65740317      -0.63156657      -2.45157240
C       -0.90989263      -0.90692880      -0.91072765
C        0.90977584       0.90977584      -0.90977584
C       -0.00465871       1.77757030       0.00794375
H       -0.66225468       2.44313916      -0.64384735
H        0.64322798       2.43503045       0.67728295
C       -1.78241447       0.00034974      -0.00472694
H       -2.45427497      -0.65498947       0.64260836
H       -2.43311707       0.67328779      -0.65473579
C       -0.91132561       0.90220522       0.91563759
C       -0.01476271      -0.02253852       1.78660255
H       -0.67934791      -0.69751639       2.42135241
H        0.63392994       0.61504881       2.47327442
C        0.01484550      -1.77751727      -0.01636693
H        0.67870853      -2.42144646      -0.68295456
H       -0.62264859      -2.45592969       0.64226336
C        1.78714474       0.01002794       0.00389507
H        2.44202412       0.67113390       0.66197326
H        2.45385902      -0.65136977      -0.64189061
C        0.91606151      -0.90478549       0.90901405
