77
Properties=species:S:1:pos:R:3 pbc="F F F"
C        0.00000000       0.00000000       0.00000000
C        0.86727435       0.86727435      -0.86727435
C        0.66646224       2.21019632      -1.10394113
C        1.71156494       2.62171348      -1.96928979
C        2.47228323       1.50014416      -2.19644021
O        1.97110104       0.42802506      -1.53359938
C        3.63638248       1.30174666      -2.97332311
C        4.62437227       1.17513243      -3.64317006
C        5.88215309       1.07029146      -4.50972665
C        6.86482453       1.04025108      -5.19910812
C        8.01674008       1.05177891      -6.01826470
C        8.62056799       2.06479622      -6.72426253
C        9.74494861       1.47715006      -7.35767250
C        9.74268731       0.14887299      -6.99053895
O        8.68798449      -0.11717107      -6.17142387
Br      11.00059341      -1.11789109      -7.53108454
H       -0.13243023       2.81871747      -0.70389268
H        1.88633699       3.60864372      -2.37395987
H        8.29400106       3.09394916      -6.77630546
H       10.46519105       1.96322194      -8.00057636
C       -0.86727435      -0.86727435      -0.86727435
C       -0.87111822      -2.24558849      -0.86389298
C       -1.83225511      -2.64254457      -1.82776853
C       -2.34345634      -1.47779576      -2.34761550
O       -1.76656327      -0.39261145      -1.77355075
C       -3.32708914      -1.24796953      -3.33639358
C       -4.16765028      -1.09540447      -4.17962001
C       -5.24553592      -0.95843868      -5.25819659
C       -6.09488200      -0.90408156      -6.10522018
C       -7.09703233      -0.88779191      -7.10195945
C       -7.75714801      -1.90778391      -7.74469482
C       -8.65541993      -1.27987523      -8.64447602
C       -8.47575191       0.07689909      -8.48324643
O       -7.52381416       0.32275235      -7.54117548
Br      -9.39923763       1.40187516      -9.41642439
H       -0.25880989      -2.88637596      -0.24499407
H       -2.11473504      -3.64804934      -2.10615621
H       -7.61113850      -2.96704345      -7.58607373
H       -9.34624227      -1.75866285      -9.32408422
C       -0.86727435       0.86727435       0.86727435
C       -2.19052561       0.62370639       1.16636768
C       -2.61003486       1.68618052       2.00635283
C       -1.51239141       2.49890361       2.15757258
O       -0.44760329       2.01365590       1.47146629
C       -1.33091392       3.69977984       2.88075849
C       -1.21758809       4.71665306       3.50843361
C       -1.12807251       6.00774483       4.32635385
C       -1.10840594       7.01296458       4.98281322
C       -1.13061371       8.18809383       5.76807615
C       -2.13287581       8.76854444       6.50820650
C       -1.56471453       9.93527699       7.07977966
C       -0.25771676       9.97926793       6.64511457
O        0.01351876       8.91328108       5.84247496
Br       0.97763833      11.30544400       7.08598119
H       -2.78111188      -0.21416897       0.82323701
H       -3.58651206       1.83823206       2.44419646
H       -3.14250854       8.39954877       6.62219837
H       -2.04935952      10.65241798       7.72721186
C        0.86727435      -0.86727435       0.86727435
C        2.22422653      -0.70757193       1.04880123
C        2.62992186      -1.73561619       1.93703016
C        1.49119946      -2.44607450       2.23159364
O        0.41393512      -1.92981633       1.58897403
C        1.28007403      -3.57287986       3.05849835
C        1.14261530      -4.52909436       3.77096510
C        1.02379785      -5.74592290       4.69245045
C        0.98257592      -6.69583147       5.42577634
C        0.98072967      -7.80855983       6.29749419
C        1.99313549      -8.41059605       7.00589520
C        1.38810852      -9.48404942       7.70761323
C        0.05120511      -9.45651220       7.37438195
O       -0.20387486      -8.43393509       6.51217706
Br      -1.23909919     -10.64544351       8.00744254
H        2.84553799       0.05384384       0.59848576
H        3.62415190      -1.93177724       2.31301145
H        3.03285525      -8.11499077       7.01640967
H        1.86860518     -10.18795600       8.37242818
