110
Properties=species:S:1:pos:R:3 pbc="F F F"
C        1.82712295       1.82712295      -1.82712295
C        2.04692557       1.19950394      -3.20879885
C        0.77096724       1.25332138      -4.06223108
C        3.22475559       1.90158852      -3.88060941
C        3.16425401       3.25183726      -4.26033913
C        4.25864600       3.87007675      -4.86861701
C        5.42825712       3.15004489      -5.09960353
C        5.50583403       1.81217899      -4.72205821
C        4.41252758       1.19089775      -4.11570820
H        2.76534608       1.93008997      -1.27200810
H        1.33933331       2.80522134      -1.87900214
H        2.31601129       0.14307276      -3.06752911
H        0.50433157       2.26327740      -4.38551942
H       -0.08910729       0.81411768      -3.55046832
H        2.26572561       3.84083223      -4.09179718
H        4.19780474       4.91395029      -5.16501104
H        6.27860924       3.63107977      -5.57585877
H        6.41774583       1.24870217      -4.90312171
H        4.49534021       0.14331622      -3.83458717
C        0.91214163       0.46639790      -5.25990433
C        1.03037519      -0.19265052      -6.26295568
Br       1.22154884      -1.25827607      -7.88480488
C       -1.82712295      -1.82712295      -1.82712295
C       -3.28011952      -1.83781621      -1.33729263
C       -3.97774199      -0.49715316      -1.61162455
C       -4.00483253      -3.01337199      -1.98874901
C       -4.23946255      -3.06499411      -3.37197374
C       -4.90046228      -4.15508854      -3.94178893
C       -5.32967905      -5.20919604      -3.13903045
C       -5.09786516      -5.17561073      -1.76659533
C       -4.43919415      -4.08606209      -1.19387729
H       -1.37160548      -2.82147578      -1.77436288
H       -1.72731821      -1.44766646      -2.84857213
H       -3.27514657      -2.00122659      -0.25024000
H       -4.16760201      -0.31294008      -2.67258629
H       -3.42028196       0.35103619      -1.20623293
H       -3.91497293      -2.25827420      -4.02510789
H       -5.08309439      -4.18080514      -5.01286653
H       -5.84679413      -6.05592197      -3.58283169
H       -5.43367987      -5.99714050      -1.13874934
H       -4.27446163      -4.08014522      -0.11863675
C       -5.25592429      -0.43077698      -0.95174259
C       -6.32640197      -0.37518693      -0.39909144
Br      -8.05727384      -0.28530253       0.49449871
C       -1.82712295       1.82712295       1.82712295
C       -1.41303419       3.30102574       1.74116843
C       -1.78850383       3.91418642       0.38382945
C       -2.04254428       4.05261313       2.91179612
C       -3.43183434       4.22140801       3.02318805
C       -3.98081643       4.90903932       4.10748400
C       -3.15051191       5.43099998       5.09639365
C       -1.77124399       5.26541568       5.00341155
C       -1.21945987       4.58027786       3.91939580
H       -1.70216341       1.42669396       2.83858678
H       -2.85945130       1.65783530       1.50627019
H       -0.32046515       3.35786752       1.84828049
H       -2.86561569       4.04196862       0.24554408
H       -1.39699806       3.33425009      -0.45576944
H       -4.10615750       3.82402684       2.26817068
H       -5.05733953       5.03995456       4.17947197
H       -3.57831843       5.96873274       5.93849661
H       -1.12200244       5.67361640       5.77395087
H       -0.13873661       4.46844339       3.86606359
C       -1.19955291       5.21808794       0.22080301
C       -0.70630651       6.31010547       0.08426836
Br       0.09123119       8.07580546      -0.13649661
C        1.82712295      -1.82712295       1.82712295
C        1.75019952      -1.40560959       3.29941925
C        0.39403799      -1.77165107       3.92083063
C        2.92139930      -2.03712858       4.04842565
C        3.02697738      -3.42611599       4.22333703
C        4.11192489      -3.97700024       4.90841463
C        5.10726688      -3.14896203       5.42167663
C        5.02006583      -1.77006938       5.24993602
C        3.93542380      -1.21637263       4.56733711
H        2.83724208      -1.70891643       1.42128565
H        1.50054843      -2.85869829       1.66431007
H        1.86278691      -0.31330743       3.35051882
H        0.25123552      -2.84746751       4.05442536
H       -0.44645277      -1.37889790       3.34303358
H        2.26686193      -4.09870255       3.83279054
H        4.17940877      -5.05321965       5.04413764
H        5.94988665      -3.57822820       5.95743293
H        5.79563517      -1.12258661       5.65134794
H        3.88670662      -0.13595154       4.45058544
C        0.24006368      -1.17572055       5.22265962
C        0.11111020      -0.67662875       6.31294141
Br      -0.09739668       0.13036050       8.07583484
C       -0.00445707       0.01189536      -1.78238275
H       -0.66409135       0.67374010      -2.43557963
H        0.65740317      -0.63156657      -2.45157240
C       -0.90989263      -0.90692880      -0.91072765
C        0.90977584       0.90977584      -0.90977584
C       -0.00465871       1.77757030       0.00794375
H       -0.66225468       2.44313916      -0.64384735
H        0.64322798       2.43503045       0.67728295
C       -1.78241447       0.00034974      -0.00472694
H       -2.45427497      -0.65498947       0.64260836
H       -2.43311707       0.67328779      -0.65473579
C       -0.91132561       0.90220522       0.91563759
C       -0.01476271      -0.02253852       1.78660255
H       -0.67934791      -0.69751639       2.42135241
H        0.63392994       0.61504881       2.47327442
C        0.01484550      -1.77751727      -0.01636693
H        0.67870853      -2.42144646      -0.68295456
H       -0.62264859      -2.45592969       0.64226336
C        1.78714474       0.01002794       0.00389507
H        2.44202412       0.67113390       0.66197326
H        2.45385902      -0.65136977      -0.64189061
C        0.91606151      -0.90478549       0.90901405
