154
Properties=species:S:1:pos:R:3 pbc="F F F"
C        1.83385377       1.83385377      -1.83385377
H        2.58499968       1.13036680      -2.21367908
C        2.49162900       2.90470031      -0.99190065
C        1.75200859       3.80067623      -0.20038070
C        2.39261143       4.80143723       0.53495442
C        3.77618604       4.93098441       0.47041565
C        4.52713532       4.06464608      -0.31989460
C        3.88857694       3.05537546      -1.04458716
Cl       4.56499277       6.17126827       1.36355834
C        0.99751531       2.37703094      -2.99732943
C        1.86563817       3.09321914      -4.04605868
C        1.06097358       3.51869456      -5.27862817
H        0.66287828       2.62746552      -5.77902942
C       -0.04212452       4.51611873      -5.00978356
C       -1.35732670       4.21170943      -5.39584849
C       -2.40428654       5.09640657      -5.12591213
C       -2.14441705       6.29668187      -4.46947684
C       -0.84720291       6.62100945      -4.08490582
C        0.19988238       5.73501532      -4.35191744
Cl      -3.43506178       7.38154414      -4.12978368
Br       2.28892580       4.28833064      -6.60441978
H        0.66760238       3.72560626      -0.14283521
H        1.80562850       5.47570448       1.15259877
H        5.60797388       4.16932291      -0.37916617
H        4.49251749       2.39226475      -1.66119827
H        0.47140816       1.54848280      -3.48845021
H        0.22289192       3.05732686      -2.62324906
H        2.66934129       2.41297823      -4.35830611
H        2.35930600       3.96078357      -3.59215506
H       -1.58152381       3.27724892      -5.90841492
H       -3.41674650       4.84194142      -5.42749397
H       -0.64145303       7.55952938      -3.57691311
H        1.20685844       6.00979302      -4.04488373
C       -1.83385377      -1.83385377      -1.83385377
H       -1.39554002      -2.83087125      -1.70263428
C       -1.71939515      -1.39260082      -3.27623398
C       -1.99260098      -0.07554104      -3.68492350
C       -1.91264618       0.28590788      -5.03235596
C       -1.58002445      -0.66913855      -5.98759179
C       -1.32121608      -1.98339640      -5.60706352
C       -1.38767497      -2.34226643      -4.25859817
Cl      -1.49521346      -0.22930256      -7.64818668
C       -3.26494235      -1.82079668      -1.28613664
C       -4.16053979      -2.85526980      -1.98910639
C       -5.55340177      -2.94757682      -1.35731772
H       -5.46044357      -3.28964715      -0.31928249
C       -6.37402231      -1.68054442      -1.42921103
C       -6.88337823      -1.11987444      -0.24697855
C       -7.61228804       0.07153316      -0.27727728
C       -7.84148873       0.71205488      -1.49230782
C       -7.35192174       0.16949287      -2.67628349
C       -6.62011609      -1.02055769      -2.64614137
Cl      -8.73157675       2.18329647      -1.52798575
Br      -6.55514733      -4.39074355      -2.23578533
H       -2.26545530       0.68626590      -2.95685446
H       -2.11315183       1.31216786      -5.32775025
H       -1.06972574      -2.73399279      -6.35274444
H       -1.18796639      -3.37587861      -3.98213551
H       -3.24834594      -2.04754024      -0.21245499
H       -3.70017008      -0.81894332      -1.38435444
H       -3.67291399      -3.83756779      -1.93014385
H       -4.23868162      -2.61697618      -3.05658683
H       -6.71325734      -1.60438155       0.71349886
H       -7.99452354       0.49363717       0.64819747
H       -7.53394565       0.66517454      -3.62621835
H       -6.24895907      -1.42861587      -3.58396025
C       -1.83385377       1.83385377       1.83385377
H       -2.39451597       1.10387536       2.43065422
C       -2.77510043       2.64347306       0.96965648
C       -2.31674036       3.49064321      -0.05431805
C       -3.21426580       4.25220068      -0.80737223
C       -4.57637255       4.19166252      -0.53128028
C       -5.05091864       3.37158161       0.48917576
C       -4.15548360       2.59964922       1.23340675
Cl      -5.68112038       5.13926832      -1.44768600
C       -0.94270980       2.67801945       2.75114643
C       -1.75958588       3.42817264       3.81715747
C       -0.86975886       4.16456544       4.82397200
H       -0.26070380       3.43586459       5.37280483
C        0.00086919       5.25014700       4.23449995
C        1.38994870       5.20578490       4.43439502
C        2.22453300       6.17319932       3.86936583
C        1.67627327       7.19699458       3.10102035
C        0.30161922       7.26360704       2.89672453
C       -0.53328825       6.29441985       3.45910705
Cl       2.70508415       8.38280814       2.39854204
Br      -2.00699505       4.96182367       6.21285750
H       -1.25458594       3.56274196      -0.28128404
H       -2.84283242       4.89039961      -1.60449782
H       -6.11430326       3.32916236       0.71299735
H       -4.54547424       1.96973695       2.03076933
H       -0.22060333       2.02720127       3.26053657
H       -0.35444218       3.38969242       2.15933323
H       -2.38506516       2.70204529       4.35351519
H       -2.45126272       4.12791693       3.33306498
H        1.83834734       4.41209957       5.03038779
H        3.29786096       6.12014958       4.03040028
H       -0.12881072       8.06465411       2.30152462
H       -1.60544677       6.36715478       3.28893363
C        1.83385377      -1.83385377       1.83385377
H        1.34507373      -2.81386009       1.77011175
C        1.80811241      -1.32275402       3.25736353
C        2.15981624      -0.00298310       3.59026619
C        2.16038035       0.42254392       4.92125782
C        1.83054381      -0.47136439       5.93484659
C        1.49467029      -1.78774671       5.62925901
C        1.48070718      -2.21010652       4.29772586
Cl       1.84468127       0.04680285       7.57482428
C        3.23644685      -1.91358391       1.22184491
C        4.11660622      -2.95648694       1.93182282
C        5.47228918      -3.14334917       1.24265796
H        5.31475107      -3.52730970       0.22731244
C        6.35197166      -1.91474785       1.21705825
C        6.82951315      -1.43304265      -0.01232458
C        7.61228091      -0.27743424      -0.07168299
C        7.92769523       0.40588729       1.09993373
C        7.47080336      -0.05860942       2.32929958
C        6.68521493      -1.21271915       2.38888107
Cl       8.88423032       1.83331852       1.02535423
Br       6.44817846      -4.59115080       2.14234696
H        2.43204147       0.71123420       2.81523659
H        2.42098407       1.45045908       5.15820922
H        1.24510708      -2.49099373       6.42036216
H        1.22146437      -3.24453795       4.07997819
H        3.15863992      -2.18770684       0.16199442
H        3.72079998      -0.93010118       1.25256667
H        3.58271774      -3.91619003       1.94171786
H        4.25605491      -2.67404163       2.98214810
H        6.59220580      -1.95195504      -0.94002081
H        7.96888572       0.08367403      -1.03252279
H        7.71999398       0.47041060       3.24540608
H        6.34088725      -1.55977840       3.36086954
C       -0.00445707       0.01189536      -1.78238275
H       -0.66409135       0.67374010      -2.43557963
H        0.65740317      -0.63156657      -2.45157240
C       -0.90989263      -0.90692880      -0.91072765
C        0.90977584       0.90977584      -0.90977584
C       -0.00465871       1.77757030       0.00794375
H       -0.66225468       2.44313916      -0.64384735
H        0.64322798       2.43503045       0.67728295
C       -1.78241447       0.00034974      -0.00472694
H       -2.45427497      -0.65498947       0.64260836
H       -2.43311707       0.67328779      -0.65473579
C       -0.91132561       0.90220522       0.91563759
C       -0.01476271      -0.02253852       1.78660255
H       -0.67934791      -0.69751639       2.42135241
H        0.63392994       0.61504881       2.47327442
C        0.01484550      -1.77751727      -0.01636693
H        0.67870853      -2.42144646      -0.68295456
H       -0.62264859      -2.45592969       0.64226336
C        1.78714474       0.01002794       0.00389507
H        2.44202412       0.67113390       0.66197326
H        2.45385902      -0.65136977      -0.64189061
C        0.91606151      -0.90478549       0.90901405
