170
Properties=species:S:1:pos:R:3 pbc="F F F"
C        1.83594041       1.83594041      -1.83594041
H        2.82391584       1.76829752      -1.36365409
C        1.31739147       3.25873709      -1.75815612
C        0.06912237       3.62987880      -2.28683102
C       -0.36789796       4.95614380      -2.22334545
C        0.44011779       5.92557800      -1.63483822
C        1.67978003       5.57938458      -1.10522939
C        2.11521094       4.25284200      -1.16557050
Cl      -0.09574905       7.55844100      -1.56228229
C        1.89986724       1.23202875      -3.24596628
C        2.81156192       1.96246385      -4.09473725
C        3.56299478       2.56450180      -4.79429866
C        4.42670898       3.25648975      -5.59839261
C        5.17814184       3.85852770      -6.29795402
C        6.08984581       4.58896548      -7.14671468
C        5.33373065       5.51784832      -8.10831600
H        4.72400443       4.91624647      -8.79376209
C        4.47628760       6.57632023      -7.44206069
C        3.09792168       6.61968323      -7.71329217
C        2.27144022       7.54813801      -7.07512434
C        2.81536434       8.44602574      -6.16100661
C        4.17946307       8.42525995      -5.88280473
C        5.00591773       7.49397730      -6.51854389
Cl       1.79688253       9.58210410      -5.36755639
Br       6.62272274       6.40979218      -9.29356135
H       -0.58040968       2.88998637      -2.75028264
H       -1.33707561       5.22526271      -2.63432778
H        2.31220330       6.33489606      -0.64746673
H        3.09065117       4.00469374      -0.75070409
H        2.22754719       0.18652124      -3.18133360
H        0.90410387       1.20606494      -3.70541275
H        6.69796056       3.88084347      -7.72376299
H        6.79573539       5.15814462      -6.52926869
H        2.65048934       5.91920205      -8.41603159
H        1.20639514       7.56095237      -7.29074138
H        4.60531255       9.12642048      -5.17053615
H        6.06846462       7.49376690      -6.28149649
C       -1.83594041      -1.83594041      -1.83594041
H       -1.22314815      -2.73072341      -2.00199590
C       -2.07121301      -1.11438607      -3.14868560
C       -2.82671553       0.06817715      -3.22729380
C       -3.04822590       0.69405356      -4.45741896
C       -2.52064539       0.14195016      -5.62183879
C       -1.76961864      -1.02850645      -5.56626892
C       -1.54522047      -1.65234724      -4.33605573
Cl      -2.79852186       0.90944984      -7.13590223
C       -3.10180359      -2.21950235      -1.05655633
C       -3.92187515      -3.14652024      -1.80036762
C       -4.59778262      -3.91058098      -2.41343163
C       -5.37468676      -4.78881147      -3.11809311
C       -6.05059423      -5.55287221      -3.73115712
C       -6.87065486      -6.47989707      -4.47497405
C       -8.07146496      -5.77026746      -5.11816254
H       -8.72672952      -5.37540060      -4.33188287
C       -7.72010210      -4.67181534      -6.10275109
C       -8.18829144      -3.36607282      -5.87653282
C       -7.83823704      -2.32103220      -6.73543333
C       -7.01865780      -2.57135800      -7.83238087
C       -6.54946886      -3.85879949      -8.07925940
C       -6.89668589      -4.90381169      -7.21794134
Cl      -6.57907863      -1.28351998      -8.88394441
Br      -9.19301441      -7.09851027      -6.03455160
H       -3.24799591       0.51920850      -2.33107193
H       -3.63213276       1.60941871      -4.49980083
H       -1.35893066      -1.46156973      -6.47406570
H       -0.96012970      -2.57018767      -4.31573164
H       -2.81769506      -2.67734227      -0.10036470
H       -3.68756564      -1.32831257      -0.79970335
H       -7.22892979      -7.27031073      -3.80332651
H       -6.26262981      -6.98454542      -5.23597347
H       -8.82081996      -3.14651642      -5.01838660
H       -8.20244266      -1.31605691      -6.53958933
H       -5.91083071      -4.05561246      -8.93582600
H       -6.51402973      -5.90098007      -7.42871821
C       -1.83594041       1.83594041       1.83594041
H       -2.81611463       1.34470561       1.79504722
C       -1.91621272       3.21264186       1.20543009
C       -0.80052342       4.06334178       1.12196698
C       -0.91437925       5.33788739       0.55932466
C       -2.14534701       5.77669451       0.07849249
C       -3.26276556       4.95016620       0.15146225
C       -3.14820741       3.67463079       0.71078524
Cl      -2.28601112       7.34737456      -0.60841144
C       -1.30389829       1.79840854       3.27555544
C       -2.16535067       2.52514526       4.17826708
C       -2.87537608       3.12413152       4.92228763
C       -3.69149205       3.81261341       5.77748589
C       -4.40151746       4.41159966       6.52150644
C       -5.26298181       5.13833257       7.42421159
C       -4.67897583       6.51797240       7.76294673
H       -3.73500601       6.39156929       8.30743770
C       -4.47598990       7.44133761       6.57734101
C       -3.19069917       7.93864080       6.30155710
C       -2.96025185       8.74818901       5.18626172
C       -4.01392021       9.07219658       4.33627989
C       -5.29659419       8.59622091       4.59471265
C       -5.52661052       7.78326224       5.70856617
Cl      -3.72880285      10.06002604       2.95771414
Br      -5.84903694       7.41434456       9.06269477
H        0.17201523       3.74223792       1.48963664
H       -0.04100675       5.98157229       0.49993584
H       -4.22428932       5.29176057      -0.22148381
H       -4.03589069       3.04661024       0.76354808
H       -1.22898059       0.75590053       3.61052091
H       -0.28570691       2.20337929       3.32649535
H       -5.39537312       4.55988920       8.34730471
H       -6.26318330       5.23574509       6.98422031
H       -2.35077761       7.68805736       6.94688801
H       -1.95794637       9.11619521       4.98394732
H       -6.11997739       8.84952784       3.93276395
H       -6.53689838       7.41928214       5.88754749
C        1.83594041      -1.83594041       1.83594041
H        1.17562512      -2.11310450       2.66713784
C        2.99154926      -0.99694439       2.34579103
C        3.99184136      -0.50323588       1.49075495
C        5.05922024       0.24427502       1.99664607
C        5.13995853       0.50210127       3.36267676
C        4.16002950       0.02249883       4.22686334
C        3.09107225      -0.72186258       3.72068862
Cl       6.45675777       1.41703369       3.98525016
C        2.22945205      -3.09610954       1.05230068
C        2.97167181      -4.02193794       1.87515327
C        3.58341700      -4.78501301       2.55336522
C        4.28656617      -5.66211322       3.33291196
C        4.89831136      -6.42518829       4.01112391
C        5.64052376      -7.35101395       4.83398827
C        7.14471897      -7.28488970       4.53028630
H        7.32393079      -7.61161878       3.49846343
C        7.79210239      -5.93441480       4.76815134
C        8.44196549      -5.28344424       3.70548734
C        9.00184662      -4.01492038       3.87793557
C        8.92091478      -3.38491426       5.11656763
C        8.28792656      -4.01475465       6.18484655
C        7.72453542      -5.28243360       6.01146991
Cl       9.60076351      -1.81926137       5.32651814
Br       8.08308590      -8.62955849       5.61343188
H        3.94968645      -0.69052320       0.41964968
H        5.82236528       0.62095103       1.32110064
H        4.22258994       0.22115433       5.29313048
H        2.33872012      -1.09259465       4.41473424
H        1.32424119      -3.59205183       0.67910901
H        2.81669760      -2.83578816       0.16309580
H        5.27544833      -8.37055566       4.65656303
H        5.44720991      -7.14242082       5.89351797
H        8.50642785      -5.75343365       2.72586148
H        9.49263540      -3.52312562       3.04232788
H        8.22531127      -3.52458288       7.15237502
H        7.23075289      -5.75302332       6.85995180
C       -0.00445707       0.01189536      -1.78238275
H       -0.66409135       0.67374010      -2.43557963
H        0.65740317      -0.63156657      -2.45157240
C       -0.90989263      -0.90692880      -0.91072765
C        0.90977584       0.90977584      -0.90977584
C       -0.00465871       1.77757030       0.00794375
H       -0.66225468       2.44313916      -0.64384735
H        0.64322798       2.43503045       0.67728295
C       -1.78241447       0.00034974      -0.00472694
H       -2.45427497      -0.65498947       0.64260836
H       -2.43311707       0.67328779      -0.65473579
C       -0.91132561       0.90220522       0.91563759
C       -0.01476271      -0.02253852       1.78660255
H       -0.67934791      -0.69751639       2.42135241
H        0.63392994       0.61504881       2.47327442
C        0.01484550      -1.77751727      -0.01636693
H        0.67870853      -2.42144646      -0.68295456
H       -0.62264859      -2.45592969       0.64226336
C        1.78714474       0.01002794       0.00389507
H        2.44202412       0.67113390       0.66197326
H        2.45385902      -0.65136977      -0.64189061
C        0.91606151      -0.90478549       0.90901405
