162
Properties=species:S:1:pos:R:3 pbc="F F F"
C        1.83017552       1.83017552      -1.83017552
C        3.12141293       2.23758931      -1.09559812
H        2.78623103       2.62920634      -0.12281277
C        3.80814942       3.44088787      -1.83904546
H        2.99500447       4.13823728      -2.09141473
C        4.47866592       3.05973350      -3.15987108
C        5.76316687       2.49092805      -3.20693440
C        6.35831352       2.15759556      -4.42622873
C        5.67869363       2.39764224      -5.61450909
C        4.40676058       2.96445616      -5.59212523
C        3.80968100       3.29211685      -4.37251191
Cl       6.41188210       1.99284258      -7.11636618
C        4.73198243       4.22839897      -0.89145417
C        4.06973920       1.07829092      -0.77844791
C        4.82613024       1.10804394       0.40655474
C        5.72106856       0.07821617       0.71311594
C        5.86062908      -0.99922835      -0.15486451
C        5.11651050      -1.05554606      -1.32813643
C        4.22892094      -0.02105110      -1.63880136
Cl       6.96344718      -2.26662866       0.21997588
H        1.20632110       2.70224131      -2.04510983
H        1.99337925       1.28383939      -2.76082474
H        6.32149794       2.28491303      -2.29529760
H        7.35041980       1.71426440      -4.43676456
H        3.87860566       3.16018933      -6.52279325
H        2.82081621       3.74553260      -4.38257659
H        4.24183309       4.42921490       0.06505963
H        5.69617424       3.75352116      -0.70222754
H        4.72629544       1.93369097       1.10792172
H        6.30101099       0.12233711       1.63085953
H        5.22180740      -1.89646447      -2.00941968
H        3.68146699      -0.09156849      -2.57537414
C        5.02338382       5.53441539      -1.42343756
C        5.26743248       6.62820415      -1.86897365
Br       5.66203853       8.39676806      -2.58936782
C       -1.83017552      -1.83017552      -1.83017552
C       -2.73854427      -2.73728872      -0.97876736
H       -2.06400641      -3.21961724      -0.25462649
C       -3.32889552      -3.89402336      -1.86516388
H       -2.48942102      -4.25929025      -2.47594520
C       -4.41312354      -3.44090821      -2.84423875
C       -5.74978112      -3.26433076      -2.44691744
C       -6.72438199      -2.85657515      -3.36118068
C       -6.37497699      -2.62893732      -4.68693065
C       -5.05749764      -2.80185004      -5.10399429
C       -4.08223641      -3.20383003      -4.18824331
Cl      -7.57428872      -2.13211898      -5.81468317
C       -3.75092444      -5.09810222      -1.00280891
C       -3.78644673      -1.99316889      -0.14686242
C       -4.14971482      -2.49382594       1.11592131
C       -5.12257802      -1.85313304       1.88954226
C       -5.73403849      -0.69766837       1.41544163
C       -5.38468342      -0.17824614       0.17382868
C       -4.41883133      -0.82449051      -0.60334936
Cl      -6.93335720       0.09095399       2.36556057
H       -1.11877455      -2.42049794      -2.41439975
H       -2.36585229      -1.16370916      -2.50848192
H       -6.05708741      -3.42905531      -1.41556585
H       -7.75031303      -2.72207480      -3.02906092
H       -4.78601281      -2.63195037      -6.14362506
H       -3.06298666      -3.34418146      -4.54175729
H       -2.97785505      -5.35471248      -0.27342083
H       -4.70092659      -4.96971900      -0.48127735
H       -3.67750140      -3.38916966       1.51460636
H       -5.39385800      -2.25889356       2.86026299
H       -5.85961895       0.72543260      -0.20057627
H       -4.18898387      -0.39920830      -1.57708047
C       -3.88970001      -6.28452512      -1.80701165
C       -4.00592455      -7.27815430      -2.48053143
Br      -4.19384979      -8.88476865      -3.56955597
C       -1.83017552       1.83017552       1.83017552
C       -2.70444627       0.97939229       2.77076179
H       -3.18545335       0.23407338       2.11872341
C       -3.86651230       1.85531081       3.36625965
H       -4.25843337       2.44352396       2.52269914
C       -3.41196051       2.86258738       4.42372261
C       -3.20353925       2.49358322       5.76390685
C       -2.79513038       3.43319330       6.71381413
C       -2.59871447       4.75613940       6.33599109
C       -2.80348934       5.14530420       5.01454842
C       -3.20610890       4.20430038       4.06390048
Cl      -2.10114077       5.91499127       7.50495883
C       -5.04635309       0.97906718       3.82641529
C       -1.92585638       0.18096204       3.81965961
C       -2.39611929      -1.08378262       4.21528277
C       -1.72338350      -1.82724415       5.19002945
C       -0.56595965      -1.32072463       5.77103021
C       -0.07628796      -0.07654004       5.38935296
C       -0.75451125       0.67050650       4.42165344
Cl       0.26209790      -2.23368721       6.97262774
H       -2.44423306       2.39010766       1.11933152
H       -1.16678226       2.53045766       2.34080347
H       -3.34332908       1.46530176       6.09307774
H       -2.63568153       3.12279838       7.74296884
H       -2.65802439       6.18262538       4.72093847
H       -3.37168371       4.53609970       3.04114200
H       -5.30342639       0.23079935       3.07176262
H       -4.89087537       0.47779610       4.78325147
H       -3.29236751      -1.50754789       3.76724508
H       -2.10591846      -2.80000389       5.48657400
H        0.82879545       0.32315694       5.84040112
H       -0.35175838       1.64740651       4.16610775
C       -6.24483658       1.76384832       3.97255187
C       -7.24856650       2.42110252       4.09494126
Br      -8.87151290       3.48382697       4.29283455
C        1.83017552      -1.83017552       1.83017552
C        0.97938753      -2.70457496       2.77063786
H        0.27761168      -2.00715571       3.25348275
C        1.87661630      -3.28991157       3.92155488
H        2.51013820      -2.45562078       4.25889750
C        2.82603327      -4.40124183       3.47099541
C        2.40011620      -5.73308122       3.32783190
C        3.28769895      -6.73271294       2.92172593
C        4.61518763      -6.41335887       2.66229845
C        5.06040556      -5.10114149       2.80179491
C        4.17123657      -4.10093037       3.20214281
Cl       5.71020269      -7.64343086       2.16745732
C        1.02983831      -3.67231016       5.14968710
C        0.11355498      -3.75012546       2.06279759
C       -1.14597939      -4.07937998       2.59421886
C       -1.95012939      -5.04908457       1.98721361
C       -1.51010964      -5.69137585       0.83499903
C       -0.27236443      -5.37597591       0.28548940
C        0.53531572      -4.41324337       0.89811210
Cl      -2.49784196      -6.88684700       0.08783759
H        2.43907032      -1.11913344       2.39546849
H        2.48520824      -2.39138867       1.16144647
H        1.36650061      -6.01723104       3.51797692
H        2.93366079      -7.75440167       2.81338629
H        6.10151850      -4.85305801       2.60701172
H        4.54664753      -3.08622286       3.31605502
H        0.32032426      -2.88057159       5.40509251
H        0.48801476      -4.61432308       5.04958511
H       -1.51827465      -3.58267097       3.48766838
H       -2.91779758      -5.29382470       2.41646144
H        0.07544703      -5.87509498      -0.61577939
H        1.50483093      -4.21034869       0.45009302
C        1.85403447      -3.80408614       6.32311617
C        2.54429875      -3.91444851       7.30586301
Br       3.66039772      -4.09289514       8.89488155
C       -0.00445707       0.01189536      -1.78238275
H       -0.66409135       0.67374010      -2.43557963
H        0.65740317      -0.63156657      -2.45157240
C       -0.90989263      -0.90692880      -0.91072765
C        0.90977584       0.90977584      -0.90977584
C       -0.00465871       1.77757030       0.00794375
H       -0.66225468       2.44313916      -0.64384735
H        0.64322798       2.43503045       0.67728295
C       -1.78241447       0.00034974      -0.00472694
H       -2.45427497      -0.65498947       0.64260836
H       -2.43311707       0.67328779      -0.65473579
C       -0.91132561       0.90220522       0.91563759
C       -0.01476271      -0.02253852       1.78660255
H       -0.67934791      -0.69751639       2.42135241
H        0.63392994       0.61504881       2.47327442
C        0.01484550      -1.77751727      -0.01636693
H        0.67870853      -2.42144646      -0.68295456
H       -0.62264859      -2.45592969       0.64226336
C        1.78714474       0.01002794       0.00389507
H        2.44202412       0.67113390       0.66197326
H        2.45385902      -0.65136977      -0.64189061
C        0.91606151      -0.90478549       0.90901405
