154
Properties=species:S:1:pos:R:3 pbc="F F F"
C        1.83017552       1.83017552      -1.83017552
C        3.12141293       2.23758931      -1.09559812
H        2.78623103       2.62920634      -0.12281277
C        3.80814942       3.44088787      -1.83904546
H        2.99500447       4.13823728      -2.09141473
C        4.47866592       3.05973350      -3.15987108
C        5.76316687       2.49092805      -3.20693440
C        6.35831352       2.15759556      -4.42622873
C        5.67869363       2.39764224      -5.61450909
C        4.40676058       2.96445616      -5.59212523
C        3.80968100       3.29211685      -4.37251191
Cl       6.41188210       1.99284258      -7.11636618
C        4.73198243       4.22839897      -0.89145417
Br       5.12812677       6.00385726      -1.61465665
C        4.06973920       1.07829092      -0.77844791
C        4.82613024       1.10804394       0.40655474
C        5.72106856       0.07821617       0.71311594
C        5.86062908      -0.99922835      -0.15486451
C        5.11651050      -1.05554606      -1.32813643
C        4.22892094      -0.02105110      -1.63880136
Cl       6.96344718      -2.26662866       0.21997588
H        1.20632110       2.70224131      -2.04510983
H        1.99337925       1.28383939      -2.76082474
H        6.32149794       2.28491303      -2.29529760
H        7.35041980       1.71426440      -4.43676456
H        3.87860566       3.16018933      -6.52279325
H        2.82081621       3.74553260      -4.38257659
H        4.24183309       4.42921490       0.06505963
H        5.69617424       3.75352116      -0.70222754
H        4.72629544       1.93369097       1.10792172
H        6.30101099       0.12233711       1.63085953
H        5.22180740      -1.89646447      -2.00941968
H        3.68146699      -0.09156849      -2.57537414
C       -1.83017552      -1.83017552      -1.83017552
C       -1.38789480      -1.76252360      -3.30418195
H       -1.31720135      -0.68798328      -3.53306551
C       -2.51960899      -2.33477748      -4.23369629
H       -3.46110823      -1.91209357      -3.85145467
C       -2.67016640      -3.85564368      -4.17246043
C       -1.83703185      -4.71741153      -4.90658595
C       -1.99833628      -6.10361524      -4.84018630
C       -3.00153266      -6.64447632      -4.04483598
C       -3.84160359      -5.80955450      -3.31218387
C       -3.67616586      -4.42387834      -3.37426555
Cl      -3.20484016      -8.35019117      -3.96605953
C       -2.39029268      -1.79235768      -5.66918521
Br      -4.06313130      -2.02438563      -6.65912375
C        0.00054937      -2.34438432      -3.58264308
C        0.80842020      -1.76119026      -4.57484939
C        2.07060599      -2.28452579      -4.87224899
C        2.54490761      -3.38867354      -4.17249930
C        1.76816883      -3.97683562      -3.18043409
C        0.50243146      -3.45906468      -2.89003797
Cl       4.09748013      -4.03542481      -4.53889796
H       -2.83493985      -1.41854163      -1.70019077
H       -1.80824795      -2.83204913      -1.39774630
H       -1.03831990      -4.32786131      -5.53552736
H       -1.33861124      -6.74964969      -5.41318782
H       -4.63226163      -6.23284395      -2.69648265
H       -4.35339807      -3.79295605      -2.80257129
H       -2.22205711      -0.71199602      -5.67193523
H       -1.61310804      -2.27307981      -6.26573509
H        0.46542989      -0.88945797      -5.12803661
H        2.67746699      -1.82337359      -5.64658196
H        2.13528600      -4.83986775      -2.63018086
H       -0.08256694      -3.95995623      -2.12274948
C       -1.83017552       1.83017552       1.83017552
C       -3.32398666       1.58877425       1.54183944
H       -3.42126400       1.66883306       0.44815308
C       -4.18548976       2.75769983       2.14489316
H       -3.64941538       3.68461159       1.89062951
C       -4.30105481       2.72746775       3.66974794
C       -5.22742534       1.90264422       4.33095976
C       -5.31962022       1.89747671       5.72504088
C       -4.49164340       2.72457453       6.47462703
C       -3.56934956       3.55340521       5.84058720
C       -3.47343032       3.55389241       4.44698702
Cl      -4.60743235       2.72334089       8.19031762
C       -5.54598720       2.87319045       1.43265792
Br      -6.36311603       4.62130125       1.76222339
C       -3.82817073       0.19033711       1.90797019
C       -4.82284894      -0.41454325       1.11931376
C       -5.32409395      -1.67957095       1.44164580
C       -4.82773245      -2.35977524       2.54830803
C       -3.83732046      -1.78611721       3.33789762
C       -3.34328429      -0.51732641       3.02071331
Cl      -5.44524828      -3.91610885       2.94770321
H       -1.53700640       2.85018013       1.56648571
H       -1.53348558       1.64119005       2.86336774
H       -5.88761157       1.23897900       3.77511800
H       -6.04036238       1.24736269       6.21372368
H       -2.92739470       4.20702146       6.42717208
H       -2.75392589       4.21972868       3.97527084
H       -5.43061858       2.82909952       0.34627026
H       -6.28217267       2.12887072       1.74087955
H       -5.21898493       0.09155606       0.24152370
H       -6.09694023      -2.12768023       0.82322857
H       -3.44568331      -2.31464535       4.20372464
H       -2.58487517      -0.09433480       3.67473227
C        1.83017552      -1.83017552       1.83017552
C        1.05162677      -2.34908135       3.05389223
H        0.58572641      -1.45546041       3.49706332
C        2.05114061      -2.90310760       4.13383454
H        2.86842890      -2.16807016       4.18815741
C        2.69415315      -4.24058989       3.76352746
C        2.03380309      -5.46547446       3.96175176
C        2.64446201      -6.67537442       3.62230139
C        3.92755587      -6.67501566       3.08827343
C        4.60256641      -5.47354325       2.88723230
C        3.98932141      -4.26371988       3.22126847
Cl       4.68268775      -8.16358361       2.67481951
C        1.41534427      -2.90004347       5.53644783
Br       2.78640013      -3.03282976       6.92741078
C       -0.09898144      -3.30306690       2.72239258
C       -1.26376172      -3.28154485       3.50983632
C       -2.32210701      -4.15791176       3.25036404
C       -2.23356931      -5.05679214       2.19304240
C       -1.09573803      -5.09033638       1.39450253
C       -0.03401534      -4.22047827       1.66020825
Cl      -3.53457019      -6.13772861       1.87368422
H        2.64880917      -1.17152460       2.13333847
H        2.23634899      -2.61367983       1.18801456
H        1.02651337      -5.50199330       4.37320190
H        2.11181529      -7.60931593       3.78031753
H        5.61020163      -5.47412139       2.47726522
H        4.54256702      -3.33986705       3.06649133
H        0.91215524      -1.95142663       5.74240649
H        0.71617062      -3.71816763       5.71758470
H       -1.36266787      -2.57961546       4.33511710
H       -3.21142974      -4.12996988       3.87394843
H       -1.02243827      -5.79099742       0.56620346
H        0.84641680      -4.29230894       1.02654691
C       -0.00445707       0.01189536      -1.78238275
H       -0.66409135       0.67374010      -2.43557963
H        0.65740317      -0.63156657      -2.45157240
C       -0.90989263      -0.90692880      -0.91072765
C        0.90977584       0.90977584      -0.90977584
C       -0.00465871       1.77757030       0.00794375
H       -0.66225468       2.44313916      -0.64384735
H        0.64322798       2.43503045       0.67728295
C       -1.78241447       0.00034974      -0.00472694
H       -2.45427497      -0.65498947       0.64260836
H       -2.43311707       0.67328779      -0.65473579
C       -0.91132561       0.90220522       0.91563759
C       -0.01476271      -0.02253852       1.78660255
H       -0.67934791      -0.69751639       2.42135241
H        0.63392994       0.61504881       2.47327442
C        0.01484550      -1.77751727      -0.01636693
H        0.67870853      -2.42144646      -0.68295456
H       -0.62264859      -2.45592969       0.64226336
C        1.78714474       0.01002794       0.00389507
H        2.44202412       0.67113390       0.66197326
H        2.45385902      -0.65136977      -0.64189061
C        0.91606151      -0.90478549       0.90901405
