141
Properties=species:S:1:pos:R:3 pbc="F F F"
C        0.00000000       0.00000000       0.00000000
C        0.92027150       0.92027150      -0.92027150
C        2.21150890       1.32768528      -0.18569409
H        1.87632700       1.71930232       0.78709125
C        2.89824540       2.53098385      -0.92914144
H        2.08510044       3.22833325      -1.18151071
C        3.56876190       2.14982948      -2.24996706
C        4.85326285       1.58102403      -2.29703037
C        5.44840950       1.24769153      -3.51632471
C        4.76878960       1.48773821      -4.70460507
C        3.49685656       2.05455213      -4.68222120
C        2.89977698       2.38221282      -3.46260788
Cl       5.50197807       1.08293856      -6.20646216
C        3.82207841       3.31849494       0.01844985
C        3.15983517       0.16838690       0.13145611
C        3.91622622       0.19813992       1.31645876
C        4.81116453      -0.83168785       1.62301996
C        4.95072506      -1.90913238       0.75503952
C        4.20660648      -1.96545008      -0.41823241
C        3.31901691      -0.93095513      -0.72889733
Cl       6.05354315      -3.17653268       1.12987991
H        0.29641707       1.79233729      -1.13520581
H        1.08347523       0.37393536      -1.85092071
H        5.41159392       1.37500900      -1.38539357
H        6.44051577       0.80436038      -3.52686053
H        2.96870164       2.25028530      -5.61288923
H        1.91091219       2.83562858      -3.47267257
H        3.33192906       3.51931088       0.97496366
H        4.78627022       2.84361714       0.20767649
H        3.81639142       1.02378694       2.01782574
H        5.39110696      -0.78756692       2.54076355
H        4.31190338      -2.80636850      -1.09951566
H        2.77156297      -1.00147251      -1.66547012
C        4.11347980       4.62451137      -0.51353354
C        4.35752846       5.71830012      -0.95906963
Br       4.75213450       7.48686403      -1.67946380
C       -0.92027150      -0.92027150      -0.92027150
C       -0.07049669      -1.77360754      -1.88078405
H        0.61739383      -1.06241377      -2.36351813
C       -0.97433633      -2.35603711      -3.02799724
H       -1.62144063      -1.52539088      -3.34811290
C       -1.90540123      -3.48362315      -2.57953405
C       -1.46237257      -4.81193441      -2.45701027
C       -2.33343341      -5.82659290      -2.05239943
C       -3.66140178      -5.52591566      -1.77381544
C       -4.12345738      -4.21749341      -1.89267910
C       -3.25074951      -3.20230390      -2.29154427
Cl      -4.73614328      -6.77445488      -1.28078062
C       -0.13767578      -2.71414197      -4.27030575
C        0.81570143      -2.81705954      -1.19540785
C        2.07264014      -3.12527275      -1.74527477
C        2.89509603      -4.09244241      -1.15911034
C        2.47615934      -4.75321938      -0.00949312
C        1.24138069      -4.45881285       0.55804335
C        0.41541012      -3.49859050      -0.03377874
Cl       3.48644630      -5.94559468       0.71201782
H       -1.54400064      -0.20991696      -1.47004257
H       -1.56082222      -1.49688924      -0.25061984
H       -0.42783137      -5.08167494      -2.66249019
H       -1.96628970      -6.84523662      -1.96021036
H       -5.16502099      -3.98395642      -1.68289875
H       -3.63924748      -2.19082708      -2.38913878
H        0.55953082      -1.91119525      -4.52461186
H        0.41620431      -3.65081587      -4.18759932
H        2.42859847      -2.61386358      -2.63708751
H        3.86042779      -4.32077433      -1.60242995
H        0.91002283      -4.97243463       1.45736127
H       -0.55106104      -3.31233829       0.42783875
C       -0.97403132      -2.84195204      -5.43554135
C       -1.67447908      -2.94899297      -6.41142616
Br      -2.80704387      -3.12206910      -7.98934937
C       -0.92027150       0.92027150       0.92027150
C       -1.82633350       1.82969006       0.06886472
H       -1.15021504       2.31208158      -0.65375856
C       -2.41633111       2.98603590       0.95600368
H       -1.57718074       3.34940084       1.56836283
C       -3.50243517       2.53306114       1.93306212
C       -4.83880058       2.35875787       1.53375880
C       -5.81513324       1.95108367       2.44620883
C       -5.46776610       1.72125113       3.77211565
C       -4.15060958       1.89188898       4.19113133
C       -3.17362218       2.29378864       3.27718686
Cl      -6.66920595       1.22452945       4.89764339
C       -2.83565073       4.19179600       0.09467677
C       -2.87411773       1.08803592      -0.76538769
C       -3.23507285       1.59082292      -2.02798840
C       -4.20775891       0.95242074      -2.80372293
C       -4.82135393      -0.20286094      -2.33193983
C       -4.47430861      -0.72436711      -1.09055270
C       -3.50863104      -0.08040893      -0.31126299
Cl      -6.02045738      -0.98866405      -3.28466277
H       -0.20886476       1.50889437       1.50620104
H       -1.45771021       0.25362035       1.59700074
H       -5.14453767       2.52523634       0.50222248
H       -6.84080305       1.81836441       2.11256921
H       -3.88071153       1.72027153       5.23089311
H       -2.15465404       2.43233972       3.63221958
H       -2.06128972       4.44834727      -0.63336070
H       -3.78513531       4.06534239      -0.42826683
H       -2.76116434       2.48606796      -2.42487968
H       -4.47723352       1.35980809      -3.77426513
H       -4.95091830      -1.62791178      -0.71795598
H       -3.28061841      -0.50726753       0.66220969
C       -2.97392671       5.37734537       0.90025262
C       -3.08973286       6.37024297       1.57492238
Br      -3.27698159       7.97567441       2.66580634
C        0.92027150      -0.92027150       0.92027150
C        0.99417296      -0.37257894       2.35813638
H        1.25359744       0.69149010       2.24643073
C        2.19348526      -1.03733588       3.12754954
H        3.03792706      -1.03523321       2.42178414
C        1.95556562      -2.49762419       3.51536861
C        1.21861825      -2.85501931       4.65767969
C        1.02056724      -4.19608498       4.99577352
C        1.56529140      -5.19640461       4.19943687
C        2.30277871      -4.86553548       3.06531571
C        2.49554397      -3.52466554       2.72438817
Cl       1.32694913      -6.84741065       4.61701901
C        2.65447750      -0.16079969       4.30684630
C       -0.33132570      -0.40450527       3.12358639
C       -0.62444687       0.61937676       4.04173100
C       -1.81413957       0.60590638       4.77650267
C       -2.73008813      -0.42411533       4.59252596
C       -2.46671496      -1.44271759       3.68338617
C       -1.27285501      -1.43383936       2.95597477
Cl      -4.19401484      -0.44332040       5.49782500
H        1.89981890      -0.88905231       0.43508896
H        0.52857094      -1.93610936       0.84365101
H        0.77393328      -2.09736506       5.30069816
H        0.44292235      -4.44760827       5.88120606
H        2.73631125      -5.64856569       2.44699922
H        3.08615108      -3.29225044       1.84081181
H        2.75428657       0.88628425       4.00827397
H        2.01506188      -0.21775812       5.18939087
H        0.06999035       1.44268000       4.19504227
H       -2.01976981       1.40304922       5.48559552
H       -3.18036948      -2.24972588       3.53569413
H       -1.09443630      -2.25897651       2.27102036
C        3.97546014      -0.53472225       4.74134231
C        5.08178311      -0.84788239       5.10523271
Br       6.87061377      -1.35423585       5.69361271
