106
Properties=species:S:1:pos:R:3 pbc="F F F"
C        3.84796498      -1.67091792      -3.87398164
C        3.30467811      -0.30234459      -3.49234466
C        3.73034592       0.09020549      -2.07528939
C        3.32089394       1.52927577      -1.67343570
C        1.82361465       1.82361465      -1.82361465
C        3.79361672       1.86574196      -0.25166185
H        3.51814008      -1.94234718      -4.88203327
H        3.49237023      -2.44142349      -3.18166038
H        4.94311611      -1.67716148      -3.86230535
H        2.21344427      -0.33226062      -3.57028580
H        3.66655549       0.44154443      -4.21076773
H        4.82175824      -0.00092799      -2.01071295
H        3.32563713      -0.63502052      -1.35931901
H        3.82825865       2.21047615      -2.37159655
H        1.47635393       1.68285825      -2.85032587
H        1.59556695       2.85497400      -1.53532201
H        3.60183434       1.06021035       0.46304567
H        3.34264857       2.79143312       0.11853981
C        5.21194448       2.11225794      -0.21736589
C        6.39979399       2.31871508      -0.18864302
Br       8.32044617       2.65253882      -0.14220057
C       -3.92982297       1.67008107      -3.79128679
C       -3.36073575       0.30431692      -3.43825934
C       -3.75928303      -0.11544225      -2.02111552
C       -3.32265753      -1.55399143      -1.64695645
C       -1.82361465      -1.82361465      -1.82361465
C       -3.76900656      -1.91845378      -0.22356018
H       -3.61918137       1.96127260      -4.79991740
H       -3.57530787       2.43552418      -3.09282345
H       -5.02464905       1.65974230      -3.76335323
H       -2.27135272       0.35172676      -3.53184350
H       -3.72231609      -0.43422436      -4.16232719
H       -4.85083165      -0.04163475      -1.93907680
H       -3.35464201       0.60511810      -1.30041171
H       -3.83031481      -2.23233688      -2.34767966
H       -1.49389171      -1.66253038      -2.85311596
H       -1.57607330      -2.85558471      -1.55420496
H       -3.57844922      -1.12077723       0.50022743
H       -3.29892668      -2.84264814       0.12603295
C       -5.18286771      -2.18667222      -0.17202839
C       -6.36697642      -2.41130516      -0.12887051
Br      -8.28158006      -2.77451763      -0.05908788
C       -5.26879460       1.89783423      -1.11560013
C       -4.38707530       1.98690278       0.12070009
C       -3.16076371       2.86748740      -0.13241032
C       -2.29011008       3.10709166       1.12640367
C       -1.82361465       1.82361465       1.82361465
C       -1.09031837       4.01151874       0.80918341
H       -6.12966242       1.24982217      -0.92165842
H       -4.71485214       1.48138302      -1.96362802
H       -5.64552579       2.88536551      -1.40263132
H       -4.08058649       0.97338875       0.39749422
H       -4.97348836       2.39303253       0.95234675
H       -3.51000738       3.83514921      -0.51361339
H       -2.55675151       2.42871629      -0.93553217
H       -2.92537411       3.62736495       1.85759229
H       -2.66206872       1.20118570       2.14628363
H       -1.22240059       2.05433691       2.70912547
H       -0.58276221       3.73600219      -0.11976538
H       -0.36355221       4.02490813       1.62708154
C       -1.49648002       5.38498443       0.66010387
C       -1.83664040       6.53526194       0.53524975
Br      -2.38665097       8.39516340       0.33337119
C       -1.61177936      -4.40122357       3.26158449
C       -0.24563692      -3.83519495       2.90512015
C       -0.04770723      -2.44013212       3.50341590
C        1.37328073      -1.86151471       3.28880997
C        1.82361465      -1.82361465       1.82361465
C        1.51070269      -0.47212052       3.92819731
H       -1.74225888      -5.39002462       2.81006043
H       -2.41367122      -3.75200077       2.89427759
H       -1.72387158      -4.50612953       4.34600202
H       -0.16269850      -3.79974748       1.81442048
H        0.53207138      -4.51346165       3.27333461
H       -0.24906149      -2.50039683       4.58020786
H       -0.80258978      -1.75797766       3.09454774
H        2.07289114      -2.54111060       3.79632962
H        1.82611363      -2.81654993       1.36687449
H        2.83573286      -1.41556046       1.73456965
H        0.65611662       0.17858073       3.72146312
H        2.43087366       0.03049064       3.61515886
C        1.61550447      -0.56467042       5.36139343
C        1.70327596      -0.64218096       6.56169517
Br       1.84519503      -0.76750895       8.50248158
C       -0.00445707       0.01189536      -1.78238275
H       -0.66409135       0.67374010      -2.43557963
H        0.65740317      -0.63156657      -2.45157240
C       -0.90989263      -0.90692880      -0.91072765
C        0.90977584       0.90977584      -0.90977584
C       -0.00465871       1.77757030       0.00794375
H       -0.66225468       2.44313916      -0.64384735
H        0.64322798       2.43503045       0.67728295
C       -1.78241447       0.00034974      -0.00472694
H       -2.45427497      -0.65498947       0.64260836
H       -2.43311707       0.67328779      -0.65473579
C       -0.91132561       0.90220522       0.91563759
C       -0.01476271      -0.02253852       1.78660255
H       -0.67934791      -0.69751639       2.42135241
H        0.63392994       0.61504881       2.47327442
C        0.01484550      -1.77751727      -0.01636693
H        0.67870853      -2.42144646      -0.68295456
H       -0.62264859      -2.45592969       0.64226336
C        1.78714474       0.01002794       0.00389507
H        2.44202412       0.67113390       0.66197326
H        2.45385902      -0.65136977      -0.64189061
C        0.91606151      -0.90478549       0.90901405
