170
Properties=species:S:1:pos:R:3 pbc="F F F"
C        5.16864602       7.55010694       0.42789202
C        5.13418955       6.13069225      -0.11977492
C        5.17782579       6.12514656      -1.65001126
C        5.31283689       4.71493030      -2.27512344
H        6.24651789       4.28734059      -1.88194972
C        4.17316692       3.76531311      -1.83255855
C        4.22383812       2.38073231      -2.49510868
C        3.27907750       1.32489456      -1.86660073
H        3.61951270       1.13969684      -0.83872551
C        3.36583413      -0.01048382      -2.65401483
C        4.76484269      -0.63355867      -2.69086552
C        4.74254721      -1.99987423      -3.36089481
C        1.82808482       1.82808482      -1.82808482
C        5.50838747       4.81347830      -3.79636236
Br       3.92881385       5.45007153      -4.74206175
H        5.10195065       7.53691841       1.52028279
H        4.33008799       8.13986087       0.04336080
H        6.09940630       8.05488109       0.15048087
H        4.21706124       5.64776903       0.23431488
H        5.98240353       5.56709226       0.28414173
H        6.02991707       6.73445433      -1.97896497
H        4.27465910       6.62148831      -2.02399313
H        3.20955199       4.24467167      -2.03394446
H        4.23409669       3.62016948      -0.74735535
H        5.25620870       2.01987120      -2.42490191
H        3.98591334       2.47260534      -3.56068810
H        3.01801623       0.15040670      -3.68266960
H        2.68514481      -0.74484870      -2.20890616
H        5.15507734      -0.73716831      -1.67227373
H        5.45647804       0.00670080      -3.24750222
H        4.10230249      -2.69723036      -2.81134715
H        5.75199628      -2.42147849      -3.39609703
H        4.36938691      -1.92567945      -4.38771448
H        1.73755093       2.81398576      -1.36783054
H        1.36847188       1.85243034      -2.82024694
H        5.76026750       3.84609151      -4.23938679
H        6.31026991       5.51438768      -4.04793381
C       -5.51376336      -7.29597734       0.51887977
C       -5.39269192      -5.90516515      -0.08679964
C       -5.37067295      -5.96601073      -1.61629993
C       -5.41584997      -4.58059879      -2.30644188
H       -6.34546523      -4.09643228      -1.97391069
C       -4.25489682      -3.66170767      -1.85443409
C       -4.21543986      -2.30715230      -2.57708694
C       -3.25222498      -1.26563025      -1.95271756
H       -3.62763085      -1.02041301      -0.94989118
C       -3.24564854       0.03578849      -2.79950509
C       -4.61262837       0.71575408      -2.92527525
C       -4.50083921       2.04863061      -3.65135919
C       -1.82808482      -1.82808482      -1.82808482
C       -5.55048190      -4.73845313      -3.82929310
Br      -3.96193996      -5.48343800      -4.67556917
H       -5.49324040      -7.23694413       1.61159825
H       -4.68669056      -7.93755259       0.19765509
H       -6.45341705      -7.77242682       0.22203736
H       -4.47089203      -5.44652337       0.28690001
H       -6.23139619      -5.28841723       0.25445935
H       -6.23426924      -6.55245138      -1.95661574
H       -4.47539919      -6.51663962      -1.92810174
H       -3.30590072      -4.19026904      -1.99199837
H       -4.35556397      -3.46584337      -0.78021419
H       -5.23274513      -1.89977739      -2.56845930
H       -3.93657735      -2.45652824      -3.62610118
H       -2.86175677      -0.18551783      -3.80381794
H       -2.55250871       0.75954487      -2.35623843
H       -5.04098095       0.88125075      -1.93045256
H       -5.30773552       0.08141711      -3.48436265
H       -3.85417572       2.74183301      -3.10407657
H       -5.48805790       2.51095341      -3.74951033
H       -4.08786536       1.91285465      -4.65641123
H       -1.80133945      -2.79544422      -1.32258355
H       -1.32807963      -1.91625159      -2.79681794
H       -5.73982684      -3.78191643      -4.32400253
H       -6.37135364      -5.41501306      -4.08622469
C       -3.31628264       0.44792969       8.52664861
C       -2.67589503       1.28208882       7.42667286
C       -3.62125058       2.38598044       6.94575259
C       -2.97983036       3.37819954       5.94486074
H       -2.12194577       3.83210153       6.46176089
C       -2.41265454       2.66495190       4.69343214
C       -1.84081704       3.62183231       3.63702975
C       -1.01723035       2.93603173       2.51731070
H       -0.12679604       2.49012777       2.98101124
C       -0.54660178       3.98698487       1.47577848
C        0.33222745       5.10082716       2.05354983
C        0.86230187       6.01094099       0.95492867
C       -1.82808482       1.82808482       1.82808482
C       -3.94217773       4.53688687       5.63916353
Br      -5.50925814       3.99480695       4.61688203
H       -2.64118135      -0.35679878       8.83420370
H       -4.25101699      -0.00597499       8.18154606
H       -3.53642812       1.06132884       9.40604956
H       -2.41827573       0.61617451       6.59606515
H       -1.74411175       1.71977823       7.80146408
H       -3.97338312       2.95132121       7.81863204
H       -4.50519613       1.91499220       6.49995222
H       -3.19604377       2.04033132       4.25179303
H       -1.60704376       1.98946044       5.00511732
H       -1.20042746       4.34252849       4.15802586
H       -2.65542694       4.18975952       3.17402031
H       -1.42290916       4.43685716       0.99132622
H        0.02341185       3.48954728       0.68306684
H        1.17605644       4.66571684       2.60052235
H       -0.23830881       5.71472109       2.75765116
H        1.48553086       5.45334807       0.24860207
H        1.47135008       6.81138996       1.38657494
H        0.03961584       6.47234883       0.39868895
H       -2.26060035       1.12052591       2.53824096
H       -2.62264236       2.22725868       1.19124812
H       -3.45824173       5.32781478       5.05968930
H       -4.32657037       4.98585298       6.56016805
C        3.33500648      -0.43588719       8.51996726
C        2.69014041      -1.27110200       7.42341432
C        3.63182071      -2.37829347       6.94286943
C        2.98578607      -3.37133569       5.94576887
H        2.12805466      -3.82204909       6.46570444
C        2.41736112      -2.65967234       4.69400512
C        1.84086185      -3.61766593       3.64115132
C        1.01626939      -2.93254993       2.52175346
H        0.12794737      -2.48350982       2.98647786
C        0.54079530      -3.98481609       1.48375374
C       -0.33926669      -5.09527680       2.06613943
C       -0.87399281      -6.00669864       0.97086196
C        1.82808482      -1.82808482       1.82808482
C        3.94473774      -4.53295649       5.64053389
Br       5.51069297      -3.99688023       4.61337393
H        2.66248453       0.37111465       8.82721640
H        4.26998575       0.01504822       8.17165053
H        3.55577109      -1.04775857       9.40027686
H        2.43213690      -0.60651589       6.59186260
H        1.75821858      -1.70576036       7.80137512
H        3.98466775      -2.94242797       7.81624065
H        4.51581741      -1.91038981       6.49393332
H        3.20116723      -2.03789430       4.24910659
H        1.61404087      -1.98159453       5.00598613
H        1.20001636      -4.33566711       4.16529834
H        2.65307908      -4.18855115       3.17757654
H        1.41493315      -4.43783975       0.99831963
H       -0.02990285      -3.48789348       0.69121163
H       -1.18081546      -4.65694568       2.61405254
H        0.23147905      -5.70886140       2.77034062
H       -1.49756644      -5.44929767       0.26468805
H       -1.48388891      -6.80473165       1.40577209
H       -0.05366923      -6.47129954       0.41379163
H        2.26388274      -1.11988951       2.53559498
H        2.62023712      -2.23057335       1.19033868
H        3.45762982      -5.32409865       5.06401732
H        4.33022566      -4.98068042       6.56168532
C       -0.00445707       0.01189536      -1.78238275
H       -0.66409135       0.67374010      -2.43557963
H        0.65740317      -0.63156657      -2.45157240
C       -0.90989263      -0.90692880      -0.91072765
C        0.90977584       0.90977584      -0.90977584
C       -0.00465871       1.77757030       0.00794375
H       -0.66225468       2.44313916      -0.64384735
H        0.64322798       2.43503045       0.67728295
C       -1.78241447       0.00034974      -0.00472694
H       -2.45427497      -0.65498947       0.64260836
H       -2.43311707       0.67328779      -0.65473579
C       -0.91132561       0.90220522       0.91563759
C       -0.01476271      -0.02253852       1.78660255
H       -0.67934791      -0.69751639       2.42135241
H        0.63392994       0.61504881       2.47327442
C        0.01484550      -1.77751727      -0.01636693
H        0.67870853      -2.42144646      -0.68295456
H       -0.62264859      -2.45592969       0.64226336
C        1.78714474       0.01002794       0.00389507
H        2.44202412       0.67113390       0.66197326
H        2.45385902      -0.65136977      -0.64189061
C        0.91606151      -0.90478549       0.90901405
