178
Properties=species:S:1:pos:R:3 pbc="F F F"
C        5.16864602       7.55010694       0.42789202
C        5.13418955       6.13069225      -0.11977492
C        5.17782579       6.12514656      -1.65001126
C        5.31283689       4.71493030      -2.27512344
H        6.24651789       4.28734059      -1.88194972
C        4.17316692       3.76531311      -1.83255855
C        4.22383812       2.38073231      -2.49510868
C        3.27907750       1.32489456      -1.86660073
H        3.61951270       1.13969684      -0.83872551
C        3.36583413      -0.01048382      -2.65401483
C        4.76484269      -0.63355867      -2.69086552
C        4.74254721      -1.99987423      -3.36089481
C        1.82808482       1.82808482      -1.82808482
C        5.50838747       4.81347830      -3.79636236
H        5.10195065       7.53691841       1.52028279
H        4.33008799       8.13986087       0.04336080
H        6.09940630       8.05488109       0.15048087
H        4.21706124       5.64776903       0.23431488
H        5.98240353       5.56709226       0.28414173
H        6.02991707       6.73445433      -1.97896497
H        4.27465910       6.62148831      -2.02399313
H        3.20955199       4.24467167      -2.03394446
H        4.23409669       3.62016948      -0.74735535
H        5.25620870       2.01987120      -2.42490191
H        3.98591334       2.47260534      -3.56068810
H        3.01801623       0.15040670      -3.68266960
H        2.68514481      -0.74484870      -2.20890616
H        5.15507734      -0.73716831      -1.67227373
H        5.45647804       0.00670080      -3.24750222
H        4.10230249      -2.69723036      -2.81134715
H        5.75199628      -2.42147849      -3.39609703
H        4.36938691      -1.92567945      -4.38771448
H        1.73755093       2.81398576      -1.36783054
H        1.36847188       1.85243034      -2.82024694
H        5.76026750       3.84609151      -4.23938679
H        6.31026991       5.51438768      -4.04793381
C        4.34072737       5.28406385      -4.49544686
C        3.36281204       5.67817924      -5.08093013
Br       1.78160566       6.31543050      -6.02760707
C       -6.35774043      -6.56380122       0.63068072
C       -6.01085133      -5.27441210      -0.09939328
C       -5.83545720      -5.51678333      -1.60074308
C       -5.64448883      -4.22518607      -2.43321574
H       -6.54044874      -3.61021812      -2.26514134
C       -4.43748056      -3.38668231      -1.94687571
C       -4.16315120      -2.13827888      -2.79824903
C       -3.15509610      -1.13760909      -2.17786759
H       -3.60238101      -0.73799379      -1.25756024
C       -2.90643636       0.04717381      -3.15010259
C       -4.16305659       0.84754469      -3.50663764
C       -3.81949140       2.06653219      -4.35060858
C       -1.82808482      -1.82808482      -1.82808482
C       -5.63589687      -4.54609815      -3.93623310
H       -6.44541594      -6.37908762       1.70591729
H       -5.58274898      -7.32209417       0.47825509
H       -7.31047464      -6.97041577       0.27708390
H       -5.08592335      -4.87446139       0.32986936
H       -6.80235630      -4.53705511       0.07405734
H       -6.72145855      -6.04512307      -1.97675475
H       -4.98340850      -6.19133117      -1.74540088
H       -3.54810515      -4.02458529      -1.91547769
H       -4.62678232      -3.05628674      -0.91855246
H       -5.12068339      -1.62803379      -2.95226464
H       -3.79506651      -2.43853795      -3.78560231
H       -2.44780202      -0.32989726      -4.07339326
H       -2.18342245       0.74114459      -2.70692441
H       -4.67116391       1.17306320      -2.59208205
H       -4.86531407       0.22845150      -4.07381849
H       -3.15690294       2.74745760      -3.80697395
H       -4.72962171       2.61530906      -4.61230217
H       -3.32199746       1.77077527      -5.28019976
H       -1.96864961      -2.72665546      -1.22406215
H       -1.24286639      -2.08170587      -2.71657690
H       -5.65830266      -3.63984915      -4.54759399
H       -6.49908004      -5.15810850      -4.21540285
C       -4.47534629      -5.28698551      -4.35790628
C       -3.50338517      -5.90747866      -4.71105758
Br      -1.93180626      -6.91076362      -5.28207335
C       -0.49357806       3.24623243       8.55105045
C       -0.65265192       3.64180436       7.09020044
C       -2.08829649       4.07806476       6.78662236
C       -2.28863142       4.65183911       5.36242011
H       -1.61817239       5.51935510       5.27828070
C       -1.85656932       3.65316692       4.26130233
C       -2.11594002       4.15170062       2.83203846
C       -1.44140929       3.31081966       1.71834383
H       -0.35364000       3.40536685       1.83892819
C       -1.82412760       3.86563821       0.31959933
C       -1.41553496       5.32307826       0.08353632
C       -1.70143571       5.75089688      -1.34876480
C       -1.82808482       1.82808482       1.82808482
C       -3.71183716       5.20826684       5.19812413
H        0.52850965       2.90468216       8.74241377
H       -1.17837094       2.43356591       8.81465121
H       -0.69734188       4.09498831       9.21147632
H       -0.37930246       2.78177034       6.46944259
H        0.04567897       4.45331354       6.85771950
H       -2.38358574       4.84460783       7.51514280
H       -2.75214614       3.22053233       6.94746207
H       -2.36519245       2.69752455       4.42545112
H       -0.78148681       3.46075299       4.35938172
H       -1.74786000       5.18210455       2.77101726
H       -3.19457412       4.18259965       2.64203300
H       -2.90786996       3.76923329       0.17398929
H       -1.35221834       3.25644980      -0.45946587
H       -0.34746497       5.45056451       0.29215328
H       -1.96638691       5.99035628       0.75393787
H       -1.13218805       5.14555281      -2.06132157
H       -1.42195606       6.79906502      -1.49440626
H       -2.76625408       5.64761264      -1.58244478
H       -1.66529854       1.42461351       2.82945517
H       -2.86481332       1.64427586       1.53205997
H       -3.83046829       5.75601126       4.25926625
H       -3.96774604       5.88891758       6.01592778
C       -4.72974958       4.18971526       5.20077324
C       -5.58225122       3.33667832       5.20299187
Br      -6.96067428       1.95738974       5.20657921
C        1.61591882      -1.85080217       8.82413994
C        1.42134910      -2.50116463       7.46214299
C        2.68039782      -3.25184397       7.02074183
C        2.50400042      -4.07669136       5.72219885
H        1.69844699      -4.79905035       5.91831086
C        2.03352256      -3.20491136       4.53260465
C        1.92544322      -3.96928297       3.20495291
C        1.19238506      -3.20499055       2.07319717
H        0.14823395      -3.06517924       2.38452186
C        1.20045142      -4.04287604       0.76603768
C        0.52305934      -5.41151547       0.88757472
C        0.45151290      -6.11313398      -0.46107909
C        1.82808482      -1.82808482       1.82808482
C        3.75865471      -4.91862862       5.44094480
H        0.71975264      -1.29042814       9.10840550
H        2.46138299      -1.15521343       8.80999165
H        1.80405428      -2.60452765       9.59522459
H        1.17544589      -1.71655577       6.73851372
H        0.56903340      -3.18795574       7.50836494
H        2.98365138      -3.93281832       7.82686666
H        3.49286938      -2.52542755       6.90184362
H        2.71237126      -2.35283268       4.42296419
H        1.04376477      -2.79361177       4.76424499
H        1.39051428      -4.90433108       3.40613646
H        2.92691607      -4.23992148       2.85236922
H        2.23613665      -4.18416166       0.43079423
H        0.69099939      -3.48793698      -0.02973410
H       -0.49023675      -5.29313841       1.28728110
H        1.07831543      -6.05562487       1.57674077
H       -0.13978079      -5.53218947      -1.17598940
H       -0.01705458      -7.09632560      -0.35265620
H        1.45286301      -6.25835236      -0.87979343
H        1.93090497      -1.24381462       2.74464763
H        2.80317413      -1.90003902       1.33793601
H        3.60190841      -5.62374311       4.62009429
H        4.05510949      -5.49437781       6.32310410
C        4.90894511      -4.13099601       5.08029696
C        5.87231332      -3.47135369       4.77825440
Br       7.42999824      -2.40476786       4.28987712
C       -0.00445707       0.01189536      -1.78238275
H       -0.66409135       0.67374010      -2.43557963
H        0.65740317      -0.63156657      -2.45157240
C       -0.90989263      -0.90692880      -0.91072765
C        0.90977584       0.90977584      -0.90977584
C       -0.00465871       1.77757030       0.00794375
H       -0.66225468       2.44313916      -0.64384735
H        0.64322798       2.43503045       0.67728295
C       -1.78241447       0.00034974      -0.00472694
H       -2.45427497      -0.65498947       0.64260836
H       -2.43311707       0.67328779      -0.65473579
C       -0.91132561       0.90220522       0.91563759
C       -0.01476271      -0.02253852       1.78660255
H       -0.67934791      -0.69751639       2.42135241
H        0.63392994       0.61504881       2.47327442
C        0.01484550      -1.77751727      -0.01636693
H        0.67870853      -2.42144646      -0.68295456
H       -0.62264859      -2.45592969       0.64226336
C        1.78714474       0.01002794       0.00389507
H        2.44202412       0.67113390       0.66197326
H        2.45385902      -0.65136977      -0.64189061
C        0.91606151      -0.90478549       0.90901405
