90
Properties=species:S:1:pos:R:3 pbc="F F F"
C        1.83077081       1.83077081      -1.83077081
C        2.72851334       0.95378659      -2.74037459
N        2.07004540       0.36229649      -3.91889752
C        1.20322504       1.31269458      -4.61499531
C        0.30896772       2.17058175      -3.68896335
N        1.00744224       2.81268358      -2.55248613
H        2.46186044       2.36325373      -1.11016974
H        3.17706415       0.14133164      -2.15843418
H        3.56333540       1.57457815      -3.08829681
H        2.77266845       0.01892258      -4.57135231
H        0.57550876       0.77328914      -5.33262103
H       -0.18626377       2.95931622      -4.26733889
H       -0.49881108       1.54172191      -3.29588466
H        1.64419963       3.50594194      -2.94845781
C        2.02121475       2.17201449      -5.43112159
C        2.70628114       2.89169492      -6.11462736
Br       3.81397555       4.05535730      -7.21979837
C       -1.83077081      -1.83077081      -1.83077081
C       -0.99758604      -2.98928997      -2.43579851
N       -0.70577684      -4.11508567      -1.53037690
C       -1.86963202      -4.51916289      -0.74212002
C       -2.68098656      -3.34785603      -0.13967021
N       -3.02349181      -2.26256884      -1.08655129
H       -2.14390639      -1.15589301      -2.63548451
H       -0.04587284      -2.60871402      -2.82224311
H       -1.54357522      -3.37874770      -3.30388745
H       -0.37884375      -4.91559541      -2.06850418
H       -1.54877557      -5.19266075       0.06001738
H       -3.61550867      -3.72062638       0.29574370
H       -2.11591665      -2.91987468       0.69699584
H       -3.67592961      -2.65628561      -1.76638415
C       -2.72767162      -5.32952982      -1.56714940
C       -3.44627979      -6.00821212      -2.25811151
Br      -4.60820842      -7.10558400      -3.37533880
C       -1.83077081       1.83077081       1.83077081
C       -1.80999964       3.29367308       1.31900180
N       -2.64164652       3.57457382       0.13501907
C       -3.96295231       2.95257815       0.21538446
C       -3.95962808       1.48986184       0.71902289
N       -3.17514786       1.24669369       1.95077040
H       -1.33961888       1.78619075       2.80947428
H       -0.78297777       3.60059490       1.09325730
H       -2.14723927       3.94133128       2.13763981
H       -2.75763536       4.58040801       0.02489996
H       -4.44706558       3.00045490      -0.76610155
H       -4.98612632       1.15157086       0.90269416
H       -3.57388377       0.84255608      -0.07764437
H       -3.65071820       1.73976196       2.70811921
C       -4.80107532       3.75657645       1.06669907
C       -5.50300335       4.42992503       1.77967504
Br      -6.63796160       5.51867273       2.93249690
C        1.83077081      -1.83077081       1.83077081
C        3.26006249      -1.92414850       1.23846353
N        4.12977797      -0.75605273       1.46540872
C        4.04584584      -0.24997796       2.83509113
C        2.60989660      -0.15574693       3.40286929
N        1.77878926      -1.36803580       3.22578689
H        1.35189083      -2.81459567       1.76879741
H        3.21089412      -2.10648620       0.15944966
H        3.74751694      -2.80547483       1.67321858
H        5.09752517      -1.00139323       1.26402494
H        4.52577543       0.73325401       2.88889751
H        2.64196658       0.07558104       4.47400581
H        2.09896773       0.69316291       2.93299066
H        2.19605378      -2.10105216       3.80149344
C        4.85011934      -1.08716633       3.68706518
C        5.52369839      -1.78831159       4.40059344
Br       6.61281876      -2.92200418       5.55430828
C       -0.00445707       0.01189536      -1.78238275
H       -0.66409135       0.67374010      -2.43557963
H        0.65740317      -0.63156657      -2.45157240
C       -0.90989263      -0.90692880      -0.91072765
C        0.90977584       0.90977584      -0.90977584
C       -0.00465871       1.77757030       0.00794375
H       -0.66225468       2.44313916      -0.64384735
H        0.64322798       2.43503045       0.67728295
C       -1.78241447       0.00034974      -0.00472694
H       -2.45427497      -0.65498947       0.64260836
H       -2.43311707       0.67328779      -0.65473579
C       -0.91132561       0.90220522       0.91563759
C       -0.01476271      -0.02253852       1.78660255
H       -0.67934791      -0.69751639       2.42135241
H        0.63392994       0.61504881       2.47327442
C        0.01484550      -1.77751727      -0.01636693
H        0.67870853      -2.42144646      -0.68295456
H       -0.62264859      -2.45592969       0.64226336
C        1.78714474       0.01002794       0.00389507
H        2.44202412       0.67113390       0.66197326
H        2.45385902      -0.65136977      -0.64189061
C        0.91606151      -0.90478549       0.90901405
