138
Properties=species:S:1:pos:R:3 pbc="F F F"
C        1.83208042       1.83208042      -1.83208042
H        1.15192584       2.17491624      -2.61899407
N        2.27363822       2.99242138      -1.04908358
C        3.42487516       2.65551515      -0.19672498
C        4.60056613       1.98869655      -0.96076805
H        5.33770423       1.67580653      -0.20904183
N        4.12653678       0.73341876      -1.60167083
C        2.96529472       0.99019945      -2.47317352
C        5.33154005       2.96453886      -1.95404655
H        4.58481154       3.43408393      -2.60879476
N        6.26924974       2.19936029      -2.83311229
C        7.04885241       3.13370204      -3.67311522
C        7.77086689       4.21943076      -2.85194639
H        8.55524522       3.77497892      -2.22883538
N        6.84374691       5.00292051      -2.03891090
C        6.06527671       4.10143874      -1.17535195
Br       8.68732749       5.44687106      -4.05746241
H        1.49443344       3.27583816      -0.45615412
H        3.76108231       3.56770493       0.30468456
H        3.10133281       1.98487408       0.60997853
H        4.89695471       0.33159462      -2.13398293
H        3.31506269       1.51684373      -3.36979609
H        2.57595357       0.02559268      -2.81866355
H        5.71264539       1.61471787      -3.45488345
H        7.78345462       2.54950266      -4.24030309
H        6.37721763       3.59193515      -4.41197753
H        7.37911501       5.65567851      -1.47067428
H        6.72999022       3.66532479      -0.41843481
H        5.33476443       4.71879399      -0.64415469
C       -1.83208042      -1.83208042      -1.83208042
H       -2.76270741      -1.92142587      -1.26170288
N       -2.11087396      -1.11957059      -3.08469863
C       -0.99384085      -1.24951344      -4.03376100
C       -0.54873778      -2.71546074      -4.28583222
H        0.35773326      -2.67551909      -4.90476676
N       -0.12761266      -3.33345271      -3.00056101
C       -1.19868144      -3.23822651      -1.99175974
C       -1.61427206      -3.56385387      -5.07199953
H       -2.58591489      -3.47444084      -4.56733450
N       -1.23872270      -5.01164213      -5.05135749
C       -2.16926963      -5.78627685      -5.90012319
C       -2.27882241      -5.23034188      -7.33307975
H       -1.33194287      -5.35697278      -7.87014388
N       -2.70258576      -3.83229022      -7.35070235
C       -1.78284138      -3.02991174      -6.52931428
Br      -3.59487591      -6.26280942      -8.33397564
H       -2.23707252      -0.13454539      -2.85480780
H       -1.28207666      -0.76887846      -4.97314756
H       -0.13215063      -0.67586129      -3.66821645
H        0.11949473      -4.30641630      -3.17561068
H       -1.99524656      -3.94135824      -2.26509771
H       -0.79885289      -3.58825824      -1.03309868
H       -1.33742172      -5.34962634      -4.09519864
H       -1.81679355      -6.82423696      -5.93222985
H       -3.15625609      -5.80685342      -5.41802081
H       -2.69270941      -3.50017823      -8.31258017
H       -0.80436493      -2.98459765      -7.02478724
H       -2.17955891      -2.01055414      -6.50760006
C       -1.83208042       1.83208042       1.83208042
H       -1.30589689       1.84750860       2.79243067
N       -1.84612890       3.19115665       1.27785762
C       -2.80439194       3.30571081       0.16701254
C       -4.23259994       2.80449509       0.51293571
H       -4.81573030       2.82443820      -0.41761591
N       -4.17191801       1.37428417       0.91542419
C       -3.22390445       1.17738670       2.02737655
C       -4.97932297       3.71886126       1.55194123
H       -4.33423983       3.86430639       2.42914401
N       -6.22685097       3.04555507       2.02931628
C       -6.99138145       3.96107852       2.90320970
C       -7.27771034       5.32295071       2.24158299
H       -7.96140240       5.20433714       1.39331999
N       -6.05247232       6.00366189       1.82944411
C       -5.27717836       5.12418811       0.94070093
Br      -8.20370506       6.48069518       3.50726072
H       -0.90914623       3.38878721       0.92849227
H       -2.83214418       4.34984179      -0.15788328
H       -2.43207823       2.74338050      -0.69923036
H       -5.10864372       1.07329651       1.18059202
H       -3.66993438       1.59168021       2.94008792
H       -3.11846825       0.10034598       2.20139557
H       -5.95546529       2.23821292       2.58856848
H       -7.93694552       3.47122345       3.16509140
H       -6.43996173       4.09759272       3.84357587
H       -6.30339406       6.86066882       1.34140491
H       -5.81351130       5.01053312      -0.01029461
H       -4.33775537       5.63975636       0.72020138
C        1.83208042      -1.83208042       1.83208042
H        2.69314436      -2.05837324       1.19431855
N        2.28910963      -1.04345582       2.98257772
C        1.26012384      -0.98415692       4.03283453
C        0.71568232      -2.37390108       4.46044734
H       -0.12109685      -2.19468991       5.14895953
N        0.12258727      -3.05811420       3.28092490
C        1.09731535      -3.15265416       2.17869818
C        1.77351381      -3.24828458       5.22832707
H        2.69696787      -3.29550107       4.63522129
N        1.27374764      -4.65023458       5.37774010
C        2.21003634      -5.43324271       6.21239062
C        2.50277867      -4.76822234       7.57124303
H        1.60373388      -4.75745933       8.19786632
N        3.04576602      -3.42043284       7.41937946
C        2.12519037      -2.60856498       6.60831205
Br       3.81348732      -5.83032997       8.54784367
H        2.47774816      -0.09847173       2.65020582
H        1.67671927      -0.45350600       4.89387741
H        0.42056479      -0.36515534       3.69050823
H       -0.19011719      -3.98441389       3.56823555
H        1.85232829      -3.90186819       2.44750602
H        0.57953239      -3.54486512       1.29581230
H        1.25164284      -5.07758063       4.45302323
H        1.77364562      -6.42638122       6.37323352
H        3.14132320      -5.58903957       5.65076754
H        3.15599175      -3.00684247       8.34263358
H        1.20575371      -2.42788513       7.18011097
H        2.60483118      -1.63717250       6.45570943
C       -0.00445707       0.01189536      -1.78238275
H       -0.66409135       0.67374010      -2.43557963
H        0.65740317      -0.63156657      -2.45157240
C       -0.90989263      -0.90692880      -0.91072765
C        0.90977584       0.90977584      -0.90977584
C       -0.00465871       1.77757030       0.00794375
H       -0.66225468       2.44313916      -0.64384735
H        0.64322798       2.43503045       0.67728295
C       -1.78241447       0.00034974      -0.00472694
H       -2.45427497      -0.65498947       0.64260836
H       -2.43311707       0.67328779      -0.65473579
C       -0.91132561       0.90220522       0.91563759
C       -0.01476271      -0.02253852       1.78660255
H       -0.67934791      -0.69751639       2.42135241
H        0.63392994       0.61504881       2.47327442
C        0.01484550      -1.77751727      -0.01636693
H        0.67870853      -2.42144646      -0.68295456
H       -0.62264859      -2.45592969       0.64226336
C        1.78714474       0.01002794       0.00389507
H        2.44202412       0.67113390       0.66197326
H        2.45385902      -0.65136977      -0.64189061
C        0.91606151      -0.90478549       0.90901405
