90
Properties=species:S:1:pos:R:3 pbc="F F F"
C        1.79173414       1.79173414      -1.79173414
C        2.07362753       1.40326496      -3.08634276
C        2.88146820       2.22910171      -3.86714775
C        3.38068895       3.41391764      -3.33055288
N        3.07574880       3.75239184      -2.05341313
N        2.27709173       2.93832034      -1.27806965
C        4.23957287       4.34618639      -4.07875629
C        4.74002631       5.52985273      -3.54137516
C        5.54797829       6.35593394      -4.32269166
C        5.82800414       5.96810682      -5.61803285
N        5.34101926       4.82267533      -6.13108711
N        4.54310361       4.00914477      -5.35593492
Br       6.91915111       7.06030299      -6.70917089
H        1.68064654       0.47943757      -3.49527073
H        3.11490943       1.94099448      -4.88849200
H        4.50817532       5.81784248      -2.51921278
H        5.94228800       7.27957712      -3.91295285
C       -1.79173414      -1.79173414      -1.79173414
C       -2.35310062      -2.94020084      -1.26993379
C       -3.15354393      -3.72487405      -2.09929969
C       -3.36687947      -3.33777413      -3.42050588
N       -2.79356504      -2.20097252      -3.88701621
N       -2.00135307      -1.42225878      -3.06986988
C       -4.19529603      -4.10190952      -4.36731001
C       -4.40694325      -3.71555078      -5.68876016
C       -5.20786134      -4.50054545      -6.51819710
C       -5.77076713      -5.64796320      -5.99541348
N       -5.56199795      -6.01553305      -4.71725071
N       -4.77001666      -5.23727766      -3.90088898
Br      -6.86257482      -6.73875574      -7.08729444
H       -2.18140112      -3.23341639      -0.24053732
H       -3.60441853      -4.63251815      -1.70745924
H       -3.95489536      -2.80853366      -6.08180157
H       -5.37843714      -4.20780146      -7.54857938
C       -1.79173414       1.79173414       1.79173414
C       -2.34906564       2.94281000       1.27135961
C       -3.14961692       3.72741354       2.10068721
C       -3.36707933       3.33764495       3.42043519
N       -2.79763813       2.19833859       3.88557705
N       -2.00533332       1.41968491       3.06846351
C       -4.19593717       4.10149517       4.36708321
C       -4.41171007       3.71246309       5.68708103
C       -5.21273553       4.49738906       6.51647930
C       -5.77160649       5.64742207       5.99511525
N       -5.55886159       6.01756792       4.71835220
N       -4.76678824       5.23937126       3.90202380
Br      -6.86341680       6.73821444       7.08699376
H       -2.17417102       3.23809159       0.24309222
H       -3.59735227       4.63708759       1.70995606
H       -3.96280283       2.80341028       6.07901747
H       -5.38650770       4.20257394       7.54573634
C        1.79173414      -1.79173414       1.79173414
C        2.33230757      -1.27744170       2.95348598
C        3.13322850      -2.10663514       3.73785403
C        3.36787681      -3.42014576       3.33713690
N        2.81462365      -3.87941241       2.18751771
N        2.02191912      -3.06244394       1.40911867
C        4.19847256      -4.36616303       4.09987996
C        4.43435726      -5.67886158       3.69803536
C        5.23543613      -6.50824046       4.48292730
C        5.77421526      -5.99416844       5.64576012
N        5.54218018      -4.72440646       6.02819506
N        4.75015542      -3.90806043       5.24996745
Br       6.86521423      -7.08634141       6.73706936
H        2.14416356      -0.25398298       3.25720829
H        3.56792542      -1.72063609       4.65583441
H        4.00109660      -6.06511933       2.77901467
H        5.42477146      -7.53184908       4.17819743
C       -0.00445707       0.01189536      -1.78238275
H       -0.66409135       0.67374010      -2.43557963
H        0.65740317      -0.63156657      -2.45157240
C       -0.90989263      -0.90692880      -0.91072765
C        0.90977584       0.90977584      -0.90977584
C       -0.00465871       1.77757030       0.00794375
H       -0.66225468       2.44313916      -0.64384735
H        0.64322798       2.43503045       0.67728295
C       -1.78241447       0.00034974      -0.00472694
H       -2.45427497      -0.65498947       0.64260836
H       -2.43311707       0.67328779      -0.65473579
C       -0.91132561       0.90220522       0.91563759
C       -0.01476271      -0.02253852       1.78660255
H       -0.67934791      -0.69751639       2.42135241
H        0.63392994       0.61504881       2.47327442
C        0.01484550      -1.77751727      -0.01636693
H        0.67870853      -2.42144646      -0.68295456
H       -0.62264859      -2.45592969       0.64226336
C        1.78714474       0.01002794       0.00389507
H        2.44202412       0.67113390       0.66197326
H        2.45385902      -0.65136977      -0.64189061
C        0.91606151      -0.90478549       0.90901405
