98
Properties=species:S:1:pos:R:3 pbc="F F F"
C        1.79173414       1.79173414      -1.79173414
C        2.07362753       1.40326496      -3.08634276
C        2.88146820       2.22910171      -3.86714775
C        3.38068895       3.41391764      -3.33055288
N        3.07574880       3.75239184      -2.05341313
N        2.27709173       2.93832034      -1.27806965
C        4.23957287       4.34618639      -4.07875629
C        4.74002631       5.52985273      -3.54137516
C        5.54797829       6.35593394      -4.32269166
C        5.82800414       5.96810682      -5.61803285
N        5.34101926       4.82267533      -6.13108711
N        4.54310361       4.00914477      -5.35593492
H        1.68064654       0.47943757      -3.49527073
H        3.11490943       1.94099448      -4.88849200
H        4.50817532       5.81784248      -2.51921278
H        5.94228800       7.27957712      -3.91295285
C        6.65912432       6.80002617      -6.44914623
C        7.35518747       7.49675862      -7.14520368
Br       8.48066271       8.62331608      -8.27066971
C       -1.79173414      -1.79173414      -1.79173414
C       -2.35740641      -2.93739996      -1.26842888
C       -3.15773450      -3.72214796      -2.09783520
C       -3.36666619      -3.33791279      -3.42058048
N       -2.78921858      -2.20379999      -3.88853520
N       -1.99710569      -1.42502177      -3.07135427
C       -4.19461185      -4.10235432      -4.36754939
C       -4.40185652      -3.71886531      -5.69053237
C       -5.20266004      -4.50393372      -6.52001013
C       -5.76987143      -5.64854410      -5.99572827
N       -5.56534478      -6.01334871      -4.71608821
N       -4.77346172      -5.23503028      -3.89969130
H       -2.18911648      -3.22839766      -0.23784070
H       -3.61195905      -4.62761295      -1.70482391
H       -3.94645721      -2.81403342      -6.08473995
H       -5.36982495      -4.21341302      -7.55157999
C       -6.60149273      -6.47939446      -6.82740952
C       -7.29797557      -7.17523164      -7.52394256
Br      -8.42412942      -8.30034150      -8.65017758
C       -1.79173414       1.79173414       1.79173414
C       -2.35417340       2.93950461       1.26955724
C       -3.15458800       3.72419641       2.09893325
C       -3.36682633       3.33780860       3.42052454
N       -2.79248213       2.20167536       3.88739628
N       -2.00029484       1.42294559       3.07024130
C       -4.19512556       4.10202008       4.36736990
C       -4.40567589       3.71637470       5.68920360
C       -5.20656544       4.50138769       6.51865075
C       -5.77054397       5.64810760       5.99549224
N       -5.56283181       6.01499007       4.71695982
N       -4.77087499       5.23671901       3.90058929
H       -2.18332339       3.23216886       0.23986259
H       -3.60629724       4.63129884       1.70679984
H       -3.95279300       2.80990078       6.08253681
H       -5.37629142       4.20919637       7.54933019
C       -6.60216688       6.47895784       6.82717199
C       -7.29865106       7.17479492       7.52370378
Br      -8.42480709       8.29990463       8.64993678
C        1.79173414      -1.79173414       1.79173414
C        2.33337085      -1.27704814       2.95281626
C        3.13426335      -2.10625207       3.73720225
C        3.36782415      -3.42016523       3.33717009
N        2.81355031      -3.87980973       2.18819373
N        2.02087025      -3.06283219       1.40977929
C        4.19830363      -4.36622550       4.09998642
C        4.43310062      -5.67932809       3.69882549
C        5.23415127      -6.50871723       4.48373540
C        5.77399423      -5.99424982       5.64589976
N        5.54300731      -4.72409854       6.02767586
N        4.75100672      -3.90774376       5.24943281
H        2.14606881      -0.25327779       3.25600824
H        3.56978751      -1.71994682       4.65466159
H        3.99901189      -6.06589360       2.78032510
H        5.42264390      -7.53263888       4.17953520
C        6.60500126      -6.82615135       6.47714411
C        7.30096965      -7.52286887       7.17331125
Br       8.42629167      -8.64940219       8.29895464
C       -0.00445707       0.01189536      -1.78238275
H       -0.66409135       0.67374010      -2.43557963
H        0.65740317      -0.63156657      -2.45157240
C       -0.90989263      -0.90692880      -0.91072765
C        0.90977584       0.90977584      -0.90977584
C       -0.00465871       1.77757030       0.00794375
H       -0.66225468       2.44313916      -0.64384735
H        0.64322798       2.43503045       0.67728295
C       -1.78241447       0.00034974      -0.00472694
H       -2.45427497      -0.65498947       0.64260836
H       -2.43311707       0.67328779      -0.65473579
C       -0.91132561       0.90220522       0.91563759
C       -0.01476271      -0.02253852       1.78660255
H       -0.67934791      -0.69751639       2.42135241
H        0.63392994       0.61504881       2.47327442
C        0.01484550      -1.77751727      -0.01636693
H        0.67870853      -2.42144646      -0.68295456
H       -0.62264859      -2.45592969       0.64226336
C        1.78714474       0.01002794       0.00389507
H        2.44202412       0.67113390       0.66197326
H        2.45385902      -0.65136977      -0.64189061
C        0.91606151      -0.90478549       0.90901405
